                        MODFLOW-ADJOINT Version 0.96 07/14/2007
            SENSITIVITY CALCULATIONS USING THE ADJOINT STATE METHOD FOR
      U.S. GEOLOGICAL SURVEY MODULAR FINITE-DIFFERENCE GROUND-WATER FLOW MODEL
                             VERSION 1.1 05/18/2006

 LIST FILE: three_layers_adj.lst
                         UNIT    7

 OPENING three_layers.bas
 FILE TYPE:BAS6   UNIT    1   STATUS:OLD    
 FORMAT:FORMATTED              ACCESS:SEQUENTIAL          

 OPENING three_layers.dis
 FILE TYPE:DIS   UNIT   29   STATUS:OLD    
 FORMAT:FORMATTED              ACCESS:SEQUENTIAL          

 OPENING three_layers.lpf
 FILE TYPE:LPF   UNIT   11   STATUS:OLD    
 FORMAT:FORMATTED              ACCESS:SEQUENTIAL          

 OPENING three_layers.zon
 FILE TYPE:ZONE   UNIT   13   STATUS:OLD    
 FORMAT:FORMATTED              ACCESS:SEQUENTIAL          

 OPENING three_layers.wel
 FILE TYPE:WEL   UNIT   12   STATUS:OLD    
 FORMAT:FORMATTED              ACCESS:SEQUENTIAL          

 OPENING three_layers.oc
 FILE TYPE:OC   UNIT   22   STATUS:OLD    
 FORMAT:FORMATTED              ACCESS:SEQUENTIAL          

 OPENING three_layers.mlt
 FILE TYPE:MULT   UNIT    8   STATUS:OLD    
 FORMAT:FORMATTED              ACCESS:SEQUENTIAL          

 OPENING three_layers.pcg
 FILE TYPE:PCG   UNIT   19   STATUS:OLD    
 FORMAT:FORMATTED              ACCESS:SEQUENTIAL          

 OPENING three_layers.chd
 FILE TYPE:CHD   UNIT   40   STATUS:OLD    
 FORMAT:FORMATTED              ACCESS:SEQUENTIAL          

 OPENING three_layers.hob
 FILE TYPE:HOB   UNIT   18   STATUS:OLD    
 FORMAT:FORMATTED              ACCESS:SEQUENTIAL          

 OPENING three_layers.adj
 FILE TYPE:ADJ   UNIT   35   STATUS:OLD    
 FORMAT:FORMATTED              ACCESS:SEQUENTIAL          

 OPENING three_layers_adj.out
 FILE TYPE:DATA   UNIT   44   STATUS:UNKNOWN
 FORMAT:FORMATTED              ACCESS:SEQUENTIAL          

 OPENING three_layers_adj.pcg
 FILE TYPE:DATA   UNIT   75   STATUS:UNKNOWN
 FORMAT:FORMATTED              ACCESS:SEQUENTIAL          

 OPENING three_layers.hbs
 FILE TYPE:DATA   UNIT   14   STATUS:UNKNOWN
 FORMAT:FORMATTED              ACCESS:SEQUENTIAL          

 OPENING three_layers.sen
 FILE TYPE:DATA   UNIT   48   STATUS:UNKNOWN
 FORMAT:FORMATTED              ACCESS:SEQUENTIAL          

 OPENING three_layers.cbb
 FILE TYPE:DATA(BINARY)   UNIT   50   STATUS:UNKNOWN
 FORMAT:UNFORMATTED            ACCESS:SEQUENTIAL          

 OPENING three_layers.cbw
 FILE TYPE:DATA(BINARY)   UNIT   54   STATUS:UNKNOWN
 FORMAT:UNFORMATTED            ACCESS:SEQUENTIAL          

 OPENING three_layers.hds
 FILE TYPE:DATA(BINARY)   UNIT   30   STATUS:UNKNOWN
 FORMAT:UNFORMATTED            ACCESS:SEQUENTIAL          

 OPENING three_layers.ddn
 FILE TYPE:DATA(BINARY)   UNIT   31   STATUS:UNKNOWN
 FORMAT:UNFORMATTED            ACCESS:SEQUENTIAL          

 BAS -- BASIC PACKAGE, VERSION 7, 5/2/2005 INPUT READ FROM UNIT    1

 DISCRETIZATION INPUT DATA READ FROM UNIT   29
 # Discretization File
 # Upper left corner: (0, 0)
 # Lower left corner: (0, -60)
 # Upper right corner: (70, 0)
 # Lower right corner: (70, -60)
    3 LAYERS        40 ROWS        35 COLUMNS
    1 STRESS PERIOD(S) IN SIMULATION
 MODEL TIME UNIT IS SECONDS
 MODEL LENGTH UNIT IS METERS
  Confining bed flag for each layer:
   0   0   0

                     DELR =   2.00000    

                     DELC =   1.50000    

 TOP ELEVATION OF LAYER 1 =   40.0000    

   MODEL LAYER BOTTOM EL. =   32.0000     FOR LAYER   1

   MODEL LAYER BOTTOM EL. =   18.0000     FOR LAYER   2

   MODEL LAYER BOTTOM EL. =   0.00000     FOR LAYER   3


 STRESS PERIOD     LENGTH       TIME STEPS     MULTIPLIER FOR DELT    SS FLAG
 ----------------------------------------------------------------------------
        1         1.000000          1                    1.000         SS

 STEADY-STATE SIMULATION



 
 # Basic Package file created                                                    
 THE FREE FORMAT OPTION HAS BEEN SELECTED

           BOUNDARY ARRAY =              1 FOR LAYER   1

           BOUNDARY ARRAY =              1 FOR LAYER   2

           BOUNDARY ARRAY =              1 FOR LAYER   3

 AQUIFER HEAD WILL BE SET TO  999.00     AT ALL NO-FLOW NODES (IBOUND=0).

             INITIAL HEAD =   60.0000     FOR LAYER   1

             INITIAL HEAD =   60.0000     FOR LAYER   2

             INITIAL HEAD =   60.0000     FOR LAYER   3

 OUTPUT CONTROL IS SPECIFIED ONLY AT TIME STEPS FOR WHICH OUTPUT IS DESIRED
 HEAD PRINT FORMAT CODE IS   0    DRAWDOWN PRINT FORMAT CODE IS   0
 HEADS WILL BE SAVED ON UNIT   30    DRAWDOWNS WILL BE SAVED ON UNIT   31

 ZONE OPTION, INPUT READ FROM UNIT   13
 # Zone (ZONE) File
     3 ZONE ARRAYS

 MULTIPLIER OPTION, INPUT READ FROM UNIT    8
 # Multiplier (MULT)
   3 MULTIPLIER ARRAYS



            MULT. ARRAY: HK_Par1_M1
 READING ON UNIT    8 WITH FORMAT: (FREE)              

            1           2           3           4           5           6           7           8           9          10
           11          12          13          14          15          16          17          18          19          20
           21          22          23          24          25          26          27          28          29          30
           31          32          33          34          35
 ........................................................................................................................
   1   1.2028E-03  1.2357E-03  1.2698E-03  1.3046E-03  1.3393E-03  1.3734E-03  1.4061E-03  1.4356E-03  1.4596E-03  1.4756E-03
       1.4811E-03  1.4741E-03  1.4536E-03  1.4191E-03  1.3712E-03  1.3115E-03  1.2421E-03  1.1662E-03  1.0878E-03  1.0116E-03
       9.4245E-04  8.8372E-04  8.3643E-04  7.9987E-04  7.7257E-04  7.5299E-04  7.3978E-04  7.3178E-04  7.2798E-04  7.2726E-04
       7.2819E-04  7.2893E-04  7.2789E-04  7.2432E-04  7.1830E-04
   2   1.1844E-03  1.2182E-03  1.2536E-03  1.2900E-03  1.3267E-03  1.3635E-03  1.3995E-03  1.4328E-03  1.4608E-03  1.4804E-03
       1.4889E-03  1.4840E-03  1.4644E-03  1.4297E-03  1.3806E-03  1.3186E-03  1.2461E-03  1.1663E-03  1.0833E-03  1.0023E-03
       9.2926E-04  8.6835E-04  8.2052E-04  7.8442E-04  7.5808E-04  7.3964E-04  7.2758E-04  7.2075E-04  7.1817E-04  7.1886E-04
       7.2138E-04  7.2354E-04  7.2328E-04  7.1987E-04  7.1360E-04
   3   1.1620E-03  1.1961E-03  1.2323E-03  1.2698E-03  1.3081E-03  1.3471E-03  1.3862E-03  1.4232E-03  1.4550E-03  1.4781E-03
       1.4894E-03  1.4864E-03  1.4677E-03  1.4329E-03  1.3829E-03  1.3195E-03  1.2451E-03  1.1630E-03  1.0769E-03  9.9220E-04
       9.1603E-04  8.5398E-04  8.0655E-04  7.7155E-04  7.4645E-04  7.2916E-04  7.1809E-04  7.1206E-04  7.1020E-04  7.1171E-04
       7.1534E-04  7.1853E-04  7.1862E-04  7.1508E-04  7.0848E-04
   4   1.1360E-03  1.1695E-03  1.2058E-03  1.2441E-03  1.2835E-03  1.3244E-03  1.3664E-03  1.4069E-03  1.4421E-03  1.4684E-03
       1.4821E-03  1.4807E-03  1.4626E-03  1.4277E-03  1.3771E-03  1.3128E-03  1.2376E-03  1.1546E-03  1.0671E-03  9.8016E-04
       9.0200E-04  8.4034E-04  7.9455E-04  7.6135E-04  7.3781E-04  7.2173E-04  7.1150E-04  7.0600E-04  7.0441E-04  7.0616E-04
       7.1032E-04  7.1399E-04  7.1381E-04  7.0981E-04  7.0282E-04
   5   1.1064E-03  1.1386E-03  1.1744E-03  1.2130E-03  1.2533E-03  1.2959E-03  1.3406E-03  1.3843E-03  1.4227E-03  1.4517E-03
       1.4676E-03  1.4673E-03  1.4495E-03  1.4141E-03  1.3627E-03  1.2976E-03  1.2222E-03  1.1394E-03  1.0522E-03  9.6473E-04
       8.8633E-04  8.2733E-04  7.8454E-04  7.5379E-04  7.3206E-04  7.1720E-04  7.0773E-04  7.0258E-04  7.0101E-04  7.0249E-04
       7.0666E-04  7.0974E-04  7.0859E-04  7.0392E-04  6.9655E-04
   6   1.0738E-03  1.1041E-03  1.1387E-03  1.1769E-03  1.2182E-03  1.2628E-03  1.3100E-03  1.3564E-03  1.3977E-03  1.4292E-03
       1.4467E-03  1.4471E-03  1.4290E-03  1.3928E-03  1.3402E-03  1.2743E-03  1.1985E-03  1.1163E-03  1.0306E-03  9.4373E-04
       8.6929E-04  8.1554E-04  7.7668E-04  7.4873E-04  7.2890E-04  7.1523E-04  7.0638E-04  7.0143E-04  6.9972E-04  7.0078E-04
       7.0363E-04  7.0483E-04  7.0262E-04  6.9730E-04  6.8961E-04
   7   1.0391E-03  1.0669E-03  1.0997E-03  1.1373E-03  1.1795E-03  1.2259E-03  1.2753E-03  1.3244E-03  1.3683E-03  1.4020E-03
       1.4208E-03  1.4215E-03  1.4028E-03  1.3651E-03  1.3111E-03  1.2440E-03  1.1679E-03  1.0863E-03  1.0023E-03  9.2073E-04
       8.5467E-04  8.0613E-04  7.7114E-04  7.4592E-04  7.2787E-04  7.1523E-04  7.0680E-04  7.0176E-04  6.9951E-04  6.9941E-04
       7.0017E-04  6.9941E-04  6.9599E-04  6.9000E-04  6.8208E-04
   8   1.0028E-03  1.0278E-03  1.0586E-03  1.0954E-03  1.1381E-03  1.1861E-03  1.2377E-03  1.2894E-03  1.3360E-03  1.3718E-03
       1.3918E-03  1.3924E-03  1.3726E-03  1.3333E-03  1.2775E-03  1.2094E-03  1.1334E-03  1.0537E-03  9.7436E-04  9.0116E-04
       8.4254E-04  7.9911E-04  7.6765E-04  7.4487E-04  7.2835E-04  7.1649E-04  7.0818E-04  7.0269E-04  6.9942E-04  6.9766E-04
       6.9621E-04  6.9351E-04  6.8882E-04  6.8218E-04  6.7404E-04
   9   9.6602E-04  9.8801E-04  1.0166E-03  1.0524E-03  1.0952E-03  1.1446E-03  1.1985E-03  1.2529E-03  1.3023E-03  1.3403E-03
       1.3613E-03  1.3617E-03  1.3406E-03  1.2996E-03  1.2423E-03  1.1734E-03  1.0984E-03  1.0221E-03  9.4918E-04  8.8443E-04
       8.3265E-04  7.9389E-04  7.6557E-04  7.4487E-04  7.2960E-04  7.1823E-04  7.0975E-04  7.0348E-04  6.9887E-04  6.9524E-04
       6.9166E-04  6.8716E-04  6.8124E-04  6.7394E-04  6.6559E-04
  10   9.2943E-04  9.4840E-04  9.7475E-04  1.0092E-03  1.0520E-03  1.1025E-03  1.1587E-03  1.2162E-03  1.2687E-03  1.3090E-03
       1.3310E-03  1.3312E-03  1.3088E-03  1.2662E-03  1.2076E-03  1.1387E-03  1.0655E-03  9.9350E-04  9.2733E-04  8.7013E-04
       8.2434E-04  7.8969E-04  7.6409E-04  7.4514E-04  7.3084E-04  7.1973E-04  7.1085E-04  7.0358E-04  6.9747E-04  6.9198E-04
       6.8647E-04  6.8034E-04  6.7330E-04  6.6538E-04  6.5682E-04
  11   8.9382E-04  9.0985E-04  9.3396E-04  9.6711E-04  1.0096E-03  1.0611E-03  1.1195E-03  1.1804E-03  1.2364E-03  1.2793E-03
       1.3024E-03  1.3023E-03  1.2788E-03  1.2350E-03  1.1756E-03  1.1072E-03  1.0362E-03  9.6870E-04  9.0885E-04  8.5787E-04
       8.1695E-04  7.8569E-04  7.6236E-04  7.4487E-04  7.3136E-04  7.2038E-04  7.1097E-04  7.0263E-04  6.9501E-04  6.8780E-04
       6.8059E-04  6.7305E-04  6.6502E-04  6.5654E-04  6.4779E-04
  12   8.5986E-04  8.7314E-04  8.9512E-04  9.2693E-04  9.6906E-04  1.0213E-03  1.0820E-03  1.1466E-03  1.2066E-03  1.2522E-03
       1.2764E-03  1.2759E-03  1.2516E-03  1.2069E-03  1.1475E-03  1.0802E-03  1.0119E-03  9.4836E-04  8.9369E-04  8.4721E-04
       8.0988E-04  7.8122E-04  7.5968E-04  7.4339E-04  7.3055E-04  7.1967E-04  7.0975E-04  7.0037E-04  6.9138E-04  6.8265E-04
       6.7399E-04  6.6526E-04  6.5639E-04  6.4743E-04  6.3852E-04
  13   8.2810E-04  8.3892E-04  8.5901E-04  8.8959E-04  9.3125E-04  9.8407E-04  1.0470E-03  1.1156E-03  1.1799E-03  1.2283E-03
       1.2531E-03  1.2524E-03  1.2274E-03  1.1826E-03  1.1237E-03  1.0581E-03  9.9270E-04  9.3335E-04  8.8143E-04  8.3756E-04
       8.0261E-04  7.7578E-04  7.5555E-04  7.4020E-04  7.2798E-04  7.1730E-04  7.0698E-04  6.9671E-04  6.8653E-04  6.7651E-04
       6.6666E-04  6.5696E-04  6.4741E-04  6.3806E-04  6.2901E-04
  14   7.9899E-04  8.0772E-04  8.2627E-04  8.5589E-04  8.9716E-04  9.5035E-04  1.0151E-03  1.0879E-03  1.1568E-03  1.2072E-03
       1.2322E-03  1.2310E-03  1.2059E-03  1.1615E-03  1.1039E-03  1.0402E-03  9.7769E-04  9.2118E-04  8.7041E-04  8.2822E-04
       7.9483E-04  7.6918E-04  7.4980E-04  7.3510E-04  7.2345E-04  7.1311E-04  7.0258E-04  6.9161E-04  6.8046E-04  6.6940E-04
       6.5860E-04  6.4813E-04  6.3805E-04  6.2841E-04  6.1928E-04
  15   7.7287E-04  7.7993E-04  7.9739E-04  8.2650E-04  8.6769E-04  9.2116E-04  9.8715E-04  1.0638E-03  1.1367E-03  1.1879E-03
       1.2124E-03  1.2107E-03  1.1858E-03  1.1426E-03  1.0868E-03  1.0252E-03  9.6423E-04  9.0880E-04  8.5968E-04  8.1891E-04
       7.8660E-04  7.6165E-04  7.4267E-04  7.2826E-04  7.1701E-04  7.0716E-04  6.9661E-04  6.8513E-04  6.7323E-04  6.6136E-04
       6.4981E-04  6.3876E-04  6.2830E-04  6.1847E-04  6.0931E-04
  16   7.4993E-04  7.5574E-04  7.7265E-04  8.0185E-04  8.4359E-04  8.9772E-04  9.6411E-04  1.0434E-03  1.1182E-03  1.1682E-03
       1.1918E-03  1.1899E-03  1.1658E-03  1.1244E-03  1.0713E-03  1.0119E-03  9.5175E-04  8.9709E-04  8.4942E-04  8.0990E-04
       7.7834E-04  7.5372E-04  7.3476E-04  7.2024E-04  7.0901E-04  6.9963E-04  6.8921E-04  6.7739E-04  6.6490E-04  6.5242E-04
       6.4033E-04  6.2886E-04  6.1814E-04  6.0821E-04  5.9910E-04
  17   7.3024E-04  7.3522E-04  7.5206E-04  7.8201E-04  8.2511E-04  8.8083E-04  9.4854E-04  1.0257E-03  1.0972E-03  1.1464E-03
       1.1693E-03  1.1674E-03  1.1444E-03  1.1055E-03  1.0559E-03  9.9978E-04  9.4077E-04  8.8694E-04  8.4030E-04  8.0164E-04
       7.7053E-04  7.4600E-04  7.2687E-04  7.1197E-04  7.0025E-04  6.9082E-04  6.8066E-04  6.6852E-04  6.5559E-04  6.4264E-04
       6.3016E-04  6.1843E-04  6.0757E-04  5.9764E-04  5.8865E-04
  18   7.1383E-04  7.1826E-04  7.3545E-04  7.6669E-04  8.1175E-04  8.6934E-04  9.3732E-04  1.0107E-03  1.0771E-03  1.1235E-03
       1.1450E-03  1.1427E-03  1.1207E-03  1.0842E-03  1.0386E-03  9.8768E-04  9.3264E-04  8.7867E-04  8.3245E-04  7.9413E-04
       7.6320E-04  7.3868E-04  7.1941E-04  7.0422E-04  6.9208E-04  6.8175E-04  6.7106E-04  6.5865E-04  6.4538E-04  6.3210E-04
       6.1936E-04  6.0748E-04  5.9660E-04  5.8677E-04  5.7797E-04
  19   7.0066E-04  7.0470E-04  7.2248E-04  7.5537E-04  8.0272E-04  8.6213E-04  9.2959E-04  9.9864E-04  1.0591E-03  1.1010E-03
       1.1197E-03  1.1161E-03  1.0942E-03  1.0595E-03  1.0174E-03  9.7156E-04  9.2271E-04  8.7062E-04  8.2454E-04  7.8637E-04
       7.5564E-04  7.3126E-04  7.1201E-04  6.9666E-04  6.8403E-04  6.7271E-04  6.6096E-04  6.4801E-04  6.3437E-04  6.2083E-04
       6.0795E-04  5.9604E-04  5.8525E-04  5.7560E-04  5.6707E-04
  20   6.9072E-04  6.9439E-04  7.1282E-04  7.4753E-04  7.9740E-04  8.5859E-04  9.2516E-04  9.8978E-04  1.0439E-03  1.0800E-03
       1.0946E-03  1.0884E-03  1.0655E-03  1.0314E-03  9.9158E-04  9.4964E-04  9.0556E-04  8.5792E-04  8.1373E-04  7.7652E-04
       7.4646E-04  7.2256E-04  7.0360E-04  6.8826E-04  6.7519E-04  6.6294E-04  6.5021E-04  6.3662E-04  6.2262E-04  6.0890E-04
       5.9597E-04  5.8415E-04  5.7354E-04  5.6418E-04  5.5600E-04
  21   6.8412E-04  6.8730E-04  7.0623E-04  7.4275E-04  7.9537E-04  8.5843E-04  9.2392E-04  9.8397E-04  1.0315E-03  1.0611E-03
       1.0704E-03  1.0606E-03  1.0357E-03  1.0009E-03  9.6176E-04  9.2218E-04  8.8224E-04  8.3917E-04  7.9817E-04  7.6298E-04
       7.3426E-04  7.1130E-04  6.9296E-04  6.7791E-04  6.6470E-04  6.5189E-04  6.3847E-04  6.2436E-04  6.1009E-04  5.9630E-04
       5.8346E-04  5.7183E-04  5.6153E-04  5.5253E-04  5.4478E-04
  22   6.8108E-04  6.8360E-04  7.0267E-04  7.4076E-04  7.9633E-04  8.6143E-04  9.2558E-04  9.8079E-04  1.0216E-03  1.0444E-03
       1.0480E-03  1.0340E-03  1.0062E-03  9.6971E-04  9.2981E-04  8.9076E-04  8.5390E-04  8.1489E-04  7.7763E-04  7.4513E-04
       7.1825E-04  6.9658E-04  6.7917E-04  6.6477E-04  6.5190E-04  6.3907E-04  6.2541E-04  6.1107E-04  5.9673E-04  5.8305E-04
       5.7045E-04  5.5916E-04  5.4926E-04  5.4072E-04  5.3347E-04
  23   6.8205E-04  6.8376E-04  7.0241E-04  7.4143E-04  8.0004E-04  8.6723E-04  9.2949E-04  9.7952E-04  1.0136E-03  1.0298E-03
       1.0278E-03  1.0095E-03  9.7866E-04  9.3999E-04  8.9843E-04  8.5809E-04  8.2170E-04  7.8690E-04  7.5329E-04  7.2353E-04
       6.9853E-04  6.7819E-04  6.6182E-04  6.4836E-04  6.3637E-04  6.2420E-04  6.1082E-04  5.9663E-04  5.8253E-04  5.6919E-04
       5.5701E-04  5.4620E-04  5.3681E-04  5.2882E-04  5.2213E-04
  24   6.8761E-04  6.8861E-04  7.0632E-04  7.4501E-04  8.0623E-04  8.7510E-04  9.3451E-04  9.7919E-04  1.0072E-03  1.0174E-03
       1.0104E-03  9.8820E-04  9.5446E-04  9.1368E-04  8.7045E-04  8.2875E-04  7.9106E-04  7.5821E-04  7.2733E-04  6.9967E-04
       6.7610E-04  6.5675E-04  6.4122E-04  6.2872E-04  6.1800E-04  6.0715E-04  5.9458E-04  5.8101E-04  5.6753E-04  5.5483E-04
       5.4327E-04  5.3306E-04  5.2428E-04  5.1690E-04  5.1084E-04
  25   6.9835E-04  6.9921E-04  7.1602E-04  7.5282E-04  8.1438E-04  8.8355E-04  9.3903E-04  9.7895E-04  1.0019E-03  1.0073E-03
       9.9621E-04  9.7078E-04  9.3463E-04  8.9204E-04  8.4739E-04  8.0446E-04  7.6585E-04  7.3237E-04  7.0225E-04  6.7549E-04
       6.5255E-04  6.3357E-04  6.1834E-04  6.0641E-04  5.9692E-04  5.8797E-04  5.7671E-04  5.6432E-04  5.5192E-04  5.4016E-04
       5.2941E-04  5.1991E-04  5.1179E-04  5.0507E-04  4.9968E-04
  26   7.1463E-04  7.1628E-04  7.3319E-04  7.6920E-04  8.2565E-04  8.8955E-04  9.4228E-04  9.7880E-04  9.9802E-04  9.9994E-04
       9.8574E-04  9.5786E-04  9.1981E-04  8.7573E-04  8.2980E-04  7.8562E-04  7.4565E-04  7.1070E-04  6.7990E-04  6.5290E-04
       6.2975E-04  6.1044E-04  5.9484E-04  5.8271E-04  5.7374E-04  5.6682E-04  5.5742E-04  5.4693E-04  5.3608E-04  5.2551E-04
       5.1567E-04  5.0693E-04  4.9949E-04  4.9344E-04  4.8874E-04
  27   7.3631E-04  7.3959E-04  7.5705E-04  7.9147E-04  8.4193E-04  8.9840E-04  9.4672E-04  9.8007E-04  9.9646E-04  9.9586E-04
       9.7951E-04  9.4987E-04  9.1039E-04  8.6504E-04  8.1785E-04  7.7224E-04  7.3056E-04  6.9373E-04  6.6149E-04  6.3347E-04
       6.0949E-04  5.8937E-04  5.7290E-04  5.5989E-04  5.5016E-04  5.4370E-04  5.3762E-04  5.2966E-04  5.2065E-04  5.1134E-04
       5.0241E-04  4.9437E-04  4.8756E-04  4.8215E-04  4.7814E-04
  28   7.6286E-04  7.6829E-04  7.8630E-04  8.1851E-04  8.6296E-04  9.1185E-04  9.5461E-04  9.8438E-04  9.9827E-04  9.9577E-04
       9.7795E-04  9.4712E-04  9.0656E-04  8.6009E-04  8.1157E-04  7.6432E-04  7.2070E-04  6.8182E-04  6.4779E-04  6.1837E-04
       5.9325E-04  5.7214E-04  5.5474E-04  5.4085E-04  5.3040E-04  5.2336E-04  5.1948E-04  5.1385E-04  5.0647E-04  4.9823E-04
       4.9000E-04  4.8248E-04  4.7618E-04  4.7134E-04  4.6798E-04
  29   7.9349E-04  8.0138E-04  8.1984E-04  8.4959E-04  8.8834E-04  9.3009E-04  9.6695E-04  9.9278E-04  1.0042E-03  1.0002E-03
       9.8138E-04  9.4976E-04  9.0837E-04  8.6085E-04  8.1092E-04  7.6188E-04  7.1617E-04  6.7514E-04  6.3923E-04  6.0830E-04
       5.8202E-04  5.6000E-04  5.4190E-04  5.2751E-04  5.1681E-04  5.0987E-04  5.0584E-04  5.0103E-04  4.9447E-04  4.8676E-04
       4.7883E-04  4.7155E-04  4.6554E-04  4.6115E-04  4.5839E-04
  30   8.2732E-04  8.3786E-04  8.5676E-04  8.8402E-04  9.1749E-04  9.5268E-04  9.8379E-04  1.0056E-03  1.0146E-03  1.0093E-03
       9.8983E-04  9.5772E-04  9.1571E-04  8.6719E-04  8.1577E-04  7.6481E-04  7.1691E-04  6.7372E-04  6.3593E-04  6.0355E-04
       5.7622E-04  5.5348E-04  5.3493E-04  5.2032E-04  5.0951E-04  5.0224E-04  4.9728E-04  4.9202E-04  4.8530E-04  4.7741E-04
       4.6925E-04  4.6181E-04  4.5583E-04  4.5172E-04  4.4949E-04
  31   8.6336E-04  8.7671E-04  8.9613E-04  9.2107E-04  9.4965E-04  9.7884E-04  1.0046E-03  1.0226E-03  1.0294E-03  1.0230E-03
       1.0031E-03  9.7073E-04  9.2827E-04  8.7882E-04  8.2589E-04  7.7288E-04  7.2270E-04  6.7733E-04  6.3773E-04  6.0401E-04
       5.7579E-04  5.5253E-04  5.3370E-04  5.1891E-04  5.0781E-04  4.9980E-04  4.9351E-04  4.8703E-04  4.7931E-04  4.7050E-04
       4.6152E-04  4.5346E-04  4.4722E-04  4.4321E-04  4.4141E-04
  32   9.0056E-04  9.1683E-04  9.3693E-04  9.5981E-04  9.8385E-04  1.0075E-03  1.0285E-03  1.0431E-03  1.0479E-03  1.0407E-03
       1.0205E-03  9.8820E-04  9.4551E-04  8.9527E-04  8.4083E-04  7.8571E-04  7.3314E-04  6.8556E-04  6.4421E-04  6.0929E-04
       5.8034E-04  5.5667E-04  5.3761E-04  5.2258E-04  5.1096E-04  5.0190E-04  4.9405E-04  4.8589E-04  4.7655E-04  4.6620E-04
       4.5581E-04  4.4668E-04  4.3984E-04  4.3575E-04  4.3430E-04
  33   9.3772E-04  9.5693E-04  9.7795E-04  9.9913E-04  1.0190E-03  1.0376E-03  1.0543E-03  1.0661E-03  1.0693E-03  1.0614E-03
       1.0413E-03  1.0092E-03  9.6659E-04  9.1579E-04  8.5997E-04  8.0270E-04  7.4763E-04  6.9777E-04  6.5473E-04  6.1873E-04
       5.8917E-04  5.6518E-04  5.4588E-04  5.3048E-04  5.1815E-04  5.0786E-04  4.9832E-04  4.8825E-04  4.7692E-04  4.6453E-04
       4.5220E-04  4.4155E-04  4.3383E-04  4.2949E-04  4.2828E-04
  34   9.7357E-04  9.9554E-04  1.0176E-03  1.0377E-03  1.0537E-03  1.0677E-03  1.0811E-03  1.0904E-03  1.0923E-03  1.0840E-03
       1.0641E-03  1.0326E-03  9.9030E-04  9.3931E-04  8.8237E-04  8.2302E-04  7.6534E-04  7.1312E-04  6.6845E-04  6.3151E-04
       6.0146E-04  5.7718E-04  5.5759E-04  5.4169E-04  5.2850E-04  5.1690E-04  5.0564E-04  4.9361E-04  4.8014E-04  4.6541E-04
       4.5069E-04  4.3815E-04  4.2931E-04  4.2459E-04  4.2354E-04
  35   1.0068E-03  1.0311E-03  1.0541E-03  1.0736E-03  1.0867E-03  1.0970E-03  1.1076E-03  1.1149E-03  1.1155E-03  1.1068E-03
       1.0873E-03  1.0565E-03  1.0150E-03  9.6435E-04  9.0680E-04  8.4562E-04  7.8525E-04  7.3061E-04  6.8443E-04  6.4671E-04
       6.1626E-04  5.9169E-04  5.7173E-04  5.5524E-04  5.4109E-04  5.2813E-04  5.1519E-04  5.0127E-04  4.8574E-04  4.6863E-04
       4.5124E-04  4.3651E-04  4.2644E-04  4.2125E-04  4.2025E-04
  36   1.0364E-03  1.0621E-03  1.0854E-03  1.1039E-03  1.1161E-03  1.1248E-03  1.1328E-03  1.1379E-03  1.1372E-03  1.1281E-03
       1.1090E-03  1.0791E-03  1.0388E-03  9.8901E-04  9.3157E-04  8.6915E-04  8.0617E-04  7.4914E-04  7.0167E-04  6.6337E-04
       6.3259E-04  6.0771E-04  5.8729E-04  5.7007E-04  5.5487E-04  5.4054E-04  5.2600E-04  5.1035E-04  4.9300E-04  4.7382E-04
       4.5374E-04  4.3671E-04  4.2543E-04  4.1970E-04  4.1859E-04
  37   1.0614E-03  1.0878E-03  1.1109E-03  1.1286E-03  1.1404E-03  1.1484E-03  1.1545E-03  1.1577E-03  1.1556E-03  1.1460E-03
       1.1272E-03  1.0983E-03  1.0593E-03  1.0109E-03  9.5449E-04  8.9193E-04  8.2679E-04  7.6762E-04  7.1929E-04  6.8061E-04
       6.4952E-04  6.2422E-04  6.0320E-04  5.8513E-04  5.6880E-04  5.5310E-04  5.3702E-04  5.1976E-04  5.0086E-04  4.8020E-04
       4.5802E-04  4.3886E-04  4.2655E-04  4.2017E-04  4.1873E-04
  38   1.0815E-03  1.1077E-03  1.1301E-03  1.1472E-03  1.1587E-03  1.1662E-03  1.1710E-03  1.1725E-03  1.1691E-03  1.1588E-03
       1.1401E-03  1.1121E-03  1.0744E-03  1.0277E-03  9.7287E-04  9.1159E-04  8.4582E-04  7.8519E-04  7.3663E-04  6.9767E-04
       6.6618E-04  6.4031E-04  6.1852E-04  5.9945E-04  5.8191E-04  5.6482E-04  5.4726E-04  5.2852E-04  5.0816E-04  4.8613E-04
       4.6333E-04  4.4345E-04  4.3001E-04  4.2280E-04  4.2075E-04
  39   1.0964E-03  1.1217E-03  1.1431E-03  1.1593E-03  1.1705E-03  1.1774E-03  1.1811E-03  1.1812E-03  1.1764E-03  1.1653E-03
       1.1464E-03  1.1189E-03  1.0825E-03  1.0373E-03  9.8424E-04  9.2453E-04  8.6115E-04  8.0193E-04  7.5318E-04  7.1385E-04
       6.8180E-04  6.5517E-04  6.3242E-04  6.1221E-04  5.9340E-04  5.7497E-04  5.5607E-04  5.3607E-04  5.1464E-04  4.9195E-04
       4.6926E-04  4.4957E-04  4.3554E-04  4.2751E-04  4.2463E-04
  40   1.1065E-03  1.1300E-03  1.1499E-03  1.1651E-03  1.1757E-03  1.1820E-03  1.1846E-03  1.1833E-03  1.1772E-03  1.1650E-03
       1.1456E-03  1.1184E-03  1.0829E-03  1.0393E-03  9.8828E-04  9.3137E-04  8.7180E-04  8.1572E-04  7.6790E-04  7.2845E-04
       6.9577E-04  6.6822E-04  6.4435E-04  6.2291E-04  6.0281E-04  5.8313E-04  5.6312E-04  5.4225E-04  5.2036E-04  4.9780E-04
       4.7588E-04  4.5690E-04  4.4281E-04  4.3411E-04  4.3020E-04



            MULT. ARRAY: HK_Par1_M2
 READING ON UNIT    8 WITH FORMAT: (FREE)              

            1           2           3           4           5           6           7           8           9          10
           11          12          13          14          15          16          17          18          19          20
           21          22          23          24          25          26          27          28          29          30
           31          32          33          34          35
 ........................................................................................................................
   1   4.2629E-05  4.2165E-05  4.1706E-05  4.1244E-05  4.0732E-05  4.0089E-05  3.9244E-05  3.8177E-05  3.6912E-05  3.5498E-05
       3.3992E-05  3.2455E-05  3.0947E-05  2.9524E-05  2.8239E-05  2.7143E-05  2.6284E-05  2.5712E-05  2.5473E-05  2.5597E-05
       2.6083E-05  2.6880E-05  2.7913E-05  2.9093E-05  3.0322E-05  3.1489E-05  3.2477E-05  3.3173E-05  3.3496E-05  3.3433E-05
       3.3077E-05  3.2616E-05  3.2242E-05  3.2066E-05  3.2112E-05
   2   4.3877E-05  4.3458E-05  4.3065E-05  4.2697E-05  4.2299E-05  4.1756E-05  4.0961E-05  3.9890E-05  3.8577E-05  3.7085E-05
       3.5480E-05  3.3831E-05  3.2202E-05  3.0654E-05  2.9245E-05  2.8027E-05  2.7054E-05  2.6382E-05  2.6073E-05  2.6182E-05
       2.6719E-05  2.7614E-05  2.8768E-05  3.0083E-05  3.1452E-05  3.2750E-05  3.3839E-05  3.4584E-05  3.4874E-05  3.4676E-05
       3.4100E-05  3.3415E-05  3.2879E-05  3.2616E-05  3.2637E-05
   3   4.5257E-05  4.4900E-05  4.4587E-05  4.4330E-05  4.4080E-05  4.3672E-05  4.2947E-05  4.1888E-05  4.0548E-05  3.9000E-05
       3.7320E-05  3.5580E-05  3.3852E-05  3.2199E-05  3.0679E-05  2.9348E-05  2.8259E-05  2.7472E-05  2.7062E-05  2.7121E-05
       2.7694E-05  2.8666E-05  2.9913E-05  3.1331E-05  3.2810E-05  3.4213E-05  3.5387E-05  3.6171E-05  3.6428E-05  3.6088E-05
       3.5258E-05  3.4321E-05  3.3619E-05  3.3270E-05  3.3257E-05
   4   4.6784E-05  4.6512E-05  4.6297E-05  4.6166E-05  4.6097E-05  4.5859E-05  4.5221E-05  4.4195E-05  4.2857E-05  4.1286E-05
       3.9563E-05  3.7767E-05  3.5972E-05  3.4245E-05  3.2644E-05  3.1223E-05  3.0033E-05  2.9129E-05  2.8592E-05  2.8549E-05
       2.9132E-05  3.0129E-05  3.1405E-05  3.2869E-05  3.4408E-05  3.5877E-05  3.7105E-05  3.7913E-05  3.8140E-05  3.7675E-05
       3.6567E-05  3.5351E-05  3.4489E-05  3.4051E-05  3.3990E-05
   5   4.8471E-05  4.8318E-05  4.8230E-05  4.8238E-05  4.8372E-05  4.8318E-05  4.7779E-05  4.6823E-05  4.5528E-05  4.3978E-05
       4.2258E-05  4.0451E-05  3.8636E-05  3.6881E-05  3.5246E-05  3.3781E-05  3.2530E-05  3.1543E-05  3.0887E-05  3.0675E-05
       3.1200E-05  3.2096E-05  3.3292E-05  3.4714E-05  3.6244E-05  3.7722E-05  3.8958E-05  3.9756E-05  3.9939E-05  3.9387E-05
       3.8043E-05  3.6536E-05  3.5527E-05  3.4984E-05  3.4851E-05
   6   5.0321E-05  5.0328E-05  5.0417E-05  5.0617E-05  5.0903E-05  5.0982E-05  5.0601E-05  4.9772E-05  4.8576E-05  4.7102E-05
       4.5442E-05  4.3684E-05  4.1909E-05  4.0190E-05  3.8586E-05  3.7144E-05  3.5902E-05  3.4900E-05  3.4201E-05  3.3896E-05
       3.4059E-05  3.4625E-05  3.5582E-05  3.6848E-05  3.8283E-05  3.9702E-05  4.0888E-05  4.1622E-05  4.1710E-05  4.1019E-05
       3.9590E-05  3.7954E-05  3.6759E-05  3.6079E-05  3.5846E-05
   7   5.2327E-05  5.2532E-05  5.2831E-05  5.3235E-05  5.3670E-05  5.3895E-05  5.3697E-05  5.3047E-05  5.2008E-05  5.0673E-05
       4.9139E-05  4.7498E-05  4.5837E-05  4.4230E-05  4.2738E-05  4.1401E-05  4.0240E-05  3.9277E-05  3.8556E-05  3.8096E-05
       3.7629E-05  3.7654E-05  3.8216E-05  3.9210E-05  4.0462E-05  4.1751E-05  4.2828E-05  4.3448E-05  4.3405E-05  4.2591E-05
       4.1118E-05  3.9452E-05  3.8131E-05  3.7314E-05  3.6961E-05
   8   5.4464E-05  5.4899E-05  5.5431E-05  5.6051E-05  5.6662E-05  5.7062E-05  5.7073E-05  5.6642E-05  5.5815E-05  5.4682E-05
       5.3344E-05  5.1897E-05  5.0429E-05  4.9015E-05  4.7714E-05  4.6553E-05  4.5514E-05  4.4546E-05  4.3602E-05  4.2631E-05
       4.1574E-05  4.0984E-05  4.1048E-05  4.1681E-05  4.2679E-05  4.3784E-05  4.4711E-05  4.5189E-05  4.5012E-05  4.4106E-05
       4.2622E-05  4.0967E-05  3.9578E-05  3.8647E-05  3.8173E-05
   9   5.6701E-05  5.7389E-05  5.8175E-05  5.9032E-05  5.9853E-05  6.0465E-05  6.0713E-05  6.0534E-05  5.9964E-05  5.9091E-05
       5.8019E-05  5.6841E-05  5.5640E-05  5.4486E-05  5.3428E-05  5.2474E-05  5.1545E-05  5.0451E-05  4.9028E-05  4.7326E-05
       4.5583E-05  4.4348E-05  4.3873E-05  4.4099E-05  4.4810E-05  4.5709E-05  4.6475E-05  4.6814E-05  4.6524E-05  4.5561E-05
       4.4093E-05  4.2469E-05  4.1051E-05  4.0035E-05  3.9449E-05
  10   5.8999E-05  5.9958E-05  6.1016E-05  6.2133E-05  6.3200E-05  6.4061E-05  6.4571E-05  6.4667E-05  6.4385E-05  6.3819E-05
       6.3073E-05  6.2230E-05  6.1352E-05  6.0484E-05  5.9655E-05  5.8853E-05  5.7950E-05  5.6590E-05  5.4441E-05  5.1853E-05
       4.9345E-05  4.7460E-05  4.6454E-05  4.6282E-05  4.6716E-05  4.7430E-05  4.8062E-05  4.8297E-05  4.7933E-05  4.6950E-05
       4.5517E-05  4.3937E-05  4.2516E-05  4.1442E-05  4.0758E-05
  11   6.1311E-05  6.2553E-05  6.3898E-05  6.5297E-05  6.6642E-05  6.7780E-05  6.8569E-05  6.8948E-05  6.8964E-05  6.8735E-05
       6.8361E-05  6.7900E-05  6.7367E-05  6.6748E-05  6.6019E-05  6.5150E-05  6.4049E-05  6.2309E-05  5.9249E-05  5.5756E-05
       5.2520E-05  5.0046E-05  4.8570E-05  4.8057E-05  4.8274E-05  4.8867E-05  4.9431E-05  4.9618E-05  4.9229E-05  4.8259E-05
       4.6876E-05  4.5350E-05  4.3945E-05  4.2834E-05  4.2069E-05
  12   6.3590E-05  6.5118E-05  6.6754E-05  6.8447E-05  7.0089E-05  7.1524E-05  7.2597E-05  7.3241E-05  7.3538E-05  7.3651E-05
       7.3679E-05  7.3628E-05  7.3426E-05  7.2948E-05  7.2053E-05  7.0656E-05  6.8823E-05  6.6571E-05  6.2652E-05  5.8554E-05
       5.4810E-05  5.1893E-05  5.0057E-05  4.9295E-05  4.9391E-05  4.9966E-05  5.0556E-05  5.0767E-05  5.0401E-05  4.9472E-05
       4.8152E-05  4.6688E-05  4.5312E-05  4.4181E-05  4.3354E-05
  13   6.5778E-05  6.7585E-05  6.9505E-05  7.1487E-05  7.3427E-05  7.5160E-05  7.6503E-05  7.7367E-05  7.7893E-05  7.8333E-05
       7.8778E-05  7.9148E-05  7.9245E-05  7.8769E-05  7.7371E-05  7.4829E-05  7.1358E-05  6.7752E-05  6.4054E-05  5.9992E-05
       5.6086E-05  5.2926E-05  5.0858E-05  4.9948E-05  5.0030E-05  5.0710E-05  5.1435E-05  5.1743E-05  5.1438E-05  5.0568E-05
       4.9319E-05  4.7923E-05  4.6589E-05  4.5457E-05  4.4586E-05
  14   6.7820E-05  6.9885E-05  7.2061E-05  7.4302E-05  7.6510E-05  7.8521E-05  8.0103E-05  8.1109E-05  8.1777E-05  8.2520E-05
       8.3389E-05  8.4184E-05  8.4561E-05  8.4004E-05  8.1888E-05  7.7804E-05  7.2272E-05  6.7065E-05  6.3934E-05  6.0310E-05
       5.6500E-05  5.3258E-05  5.1059E-05  5.0073E-05  5.0222E-05  5.1126E-05  5.2092E-05  5.2548E-05  5.2323E-05  5.1520E-05
       5.0347E-05  4.9028E-05  4.7748E-05  4.6635E-05  4.5741E-05
  15   6.9659E-05  7.1946E-05  7.4328E-05  7.6763E-05  7.9169E-05  8.1394E-05  8.3170E-05  8.4226E-05  8.4938E-05  8.5973E-05
       8.7257E-05  8.8474E-05  8.9152E-05  8.8582E-05  8.5865E-05  8.0422E-05  7.3258E-05  6.7354E-05  6.3784E-05  6.0221E-05
       5.6464E-05  5.3182E-05  5.0893E-05  4.9843E-05  5.0074E-05  5.1284E-05  5.2569E-05  5.3185E-05  5.3030E-05  5.2291E-05
       5.1201E-05  4.9970E-05  4.8764E-05  4.7690E-05  4.6798E-05
  16   7.1242E-05  7.3702E-05  7.6218E-05  7.8748E-05  8.1228E-05  8.3535E-05  8.5431E-05  8.6470E-05  8.7198E-05  8.8528E-05
       9.0173E-05  9.1778E-05  9.2809E-05  9.2451E-05  8.9618E-05  8.3483E-05  7.5168E-05  6.8688E-05  6.4342E-05  6.0367E-05
       5.6455E-05  5.3083E-05  5.0694E-05  4.9542E-05  4.9774E-05  5.1292E-05  5.2910E-05  5.3630E-05  5.3515E-05  5.2840E-05
       5.1844E-05  5.0720E-05  4.9609E-05  4.8601E-05  4.7738E-05
  17   7.2521E-05  7.5097E-05  7.7662E-05  8.0164E-05  8.2555E-05  8.4741E-05  8.6518E-05  8.7652E-05  8.8621E-05  9.0092E-05
       9.1961E-05  9.3868E-05  9.5286E-05  9.5417E-05  9.3163E-05  8.7421E-05  7.8491E-05  7.1311E-05  6.5856E-05  6.1112E-05
       5.6838E-05  5.3307E-05  5.0809E-05  4.9535E-05  4.9627E-05  5.1278E-05  5.3113E-05  5.3814E-05  5.3723E-05  5.3124E-05
       5.2244E-05  5.1252E-05  5.0265E-05  4.9353E-05  4.8550E-05
  18   7.3460E-05  7.6093E-05  7.8617E-05  8.0967E-05  8.3110E-05  8.5010E-05  8.6575E-05  8.7765E-05  8.8924E-05  9.0487E-05
       9.2453E-05  9.4542E-05  9.6299E-05  9.7059E-05  9.5905E-05  9.1803E-05  8.3989E-05  7.5158E-05  6.8219E-05  6.2495E-05
       5.7750E-05  5.4029E-05  5.1445E-05  5.0108E-05  5.0131E-05  5.1451E-05  5.2982E-05  5.3667E-05  5.3616E-05  5.3115E-05
       5.2379E-05  5.1550E-05  5.0720E-05  4.9937E-05  4.9225E-05
  19   7.4029E-05  7.6665E-05  7.9071E-05  8.1157E-05  8.2921E-05  8.4415E-05  8.5686E-05  8.6814E-05  8.8036E-05  8.9609E-05
       9.1552E-05  9.3670E-05  9.5615E-05  9.6883E-05  9.6770E-05  9.4314E-05  8.8541E-05  7.9084E-05  7.0783E-05  6.4187E-05
       5.9033E-05  5.5163E-05  5.2524E-05  5.1117E-05  5.0938E-05  5.1750E-05  5.2758E-05  5.3256E-05  5.3207E-05  5.2813E-05
       5.2245E-05  5.1612E-05  5.0971E-05  5.0352E-05  4.9764E-05
  20   7.4203E-05  7.6800E-05  7.9027E-05  8.0767E-05  8.2050E-05  8.3044E-05  8.3939E-05  8.4883E-05  8.6028E-05  8.7499E-05
       8.9294E-05  9.1270E-05  9.3175E-05  9.4646E-05  9.5144E-05  9.3787E-05  8.9204E-05  8.0829E-05  7.2414E-05  6.5542E-05
       6.0269E-05  5.6390E-05  5.3748E-05  5.2240E-05  5.1750E-05  5.1990E-05  5.2425E-05  5.2626E-05  5.2524E-05  5.2231E-05
       5.1852E-05  5.1444E-05  5.1029E-05  5.0606E-05  5.0174E-05
  21   7.3962E-05  7.6485E-05  7.8500E-05  7.9842E-05  8.0570E-05  8.0994E-05  8.1451E-05  8.2120E-05  8.3073E-05  8.4332E-05
       8.5856E-05  8.7529E-05  8.9164E-05  9.0493E-05  9.1108E-05  9.0284E-05  8.6765E-05  7.9857E-05  7.2334E-05  6.5920E-05
       6.0941E-05  5.7269E-05  5.4721E-05  5.3127E-05  5.2305E-05  5.1997E-05  5.1886E-05  5.1760E-05  5.1580E-05  5.1389E-05
       5.1219E-05  5.1069E-05  5.0911E-05  5.0717E-05  5.0468E-05
  22   7.3280E-05  7.5706E-05  7.7501E-05  7.8434E-05  7.8565E-05  7.8378E-05  7.8375E-05  7.8724E-05  7.9408E-05  8.0366E-05
       8.1523E-05  8.2771E-05  8.3964E-05  8.4892E-05  8.5244E-05  8.4517E-05  8.1883E-05  7.6462E-05  7.0363E-05  6.4948E-05
       6.0632E-05  5.7393E-05  5.5071E-05  5.3470E-05  5.2382E-05  5.1612E-05  5.1031E-05  5.0614E-05  5.0374E-05  5.0308E-05
       5.0375E-05  5.0512E-05  5.0644E-05  5.0707E-05  5.0664E-05
  23   7.2135E-05  7.4433E-05  7.6024E-05  7.6589E-05  7.6120E-05  7.5324E-05  7.4890E-05  7.4920E-05  7.5292E-05  7.5890E-05
       7.6619E-05  7.7379E-05  7.8047E-05  7.8457E-05  7.8365E-05  7.7423E-05  7.5210E-05  7.1323E-05  6.6800E-05  6.2607E-05
       5.9156E-05  5.6504E-05  5.4531E-05  5.3040E-05  5.1815E-05  5.0715E-05  4.9772E-05  4.9147E-05  4.8908E-05  4.9011E-05
       4.9353E-05  4.9810E-05  5.0262E-05  5.0606E-05  5.0788E-05
  24   7.0509E-05  7.2630E-05  7.4033E-05  7.4330E-05  7.3328E-05  7.1979E-05  7.1200E-05  7.0930E-05  7.0967E-05  7.1175E-05
       7.1454E-05  7.1716E-05  7.1864E-05  7.1770E-05  7.1258E-05  7.0100E-05  6.8077E-05  6.5391E-05  6.2217E-05  5.9162E-05
       5.6577E-05  5.4550E-05  5.2994E-05  5.1722E-05  5.0511E-05  4.9238E-05  4.8063E-05  4.7347E-05  4.7201E-05  4.7536E-05
       4.8195E-05  4.9005E-05  4.9801E-05  5.0447E-05  5.0866E-05
  25   6.8411E-05  7.0276E-05  7.1460E-05  7.1601E-05  7.0280E-05  6.8523E-05  6.7508E-05  6.6942E-05  6.6630E-05  6.6439E-05
       6.6279E-05  6.6079E-05  6.5766E-05  6.5254E-05  6.4430E-05  6.3181E-05  6.1466E-05  5.9436E-05  5.7188E-05  5.5016E-05
       5.3156E-05  5.1681E-05  5.0527E-05  4.9526E-05  4.8455E-05  4.7172E-05  4.5904E-05  4.5248E-05  4.5307E-05  4.5941E-05
       4.6956E-05  4.8146E-05  4.9305E-05  5.0264E-05  5.0927E-05
  26   6.5897E-05  6.7417E-05  6.8292E-05  6.8190E-05  6.6934E-05  6.5217E-05  6.3943E-05  6.3067E-05  6.2406E-05  6.1836E-05
       6.1278E-05  6.0678E-05  5.9989E-05  5.9161E-05  5.8138E-05  5.6878E-05  5.5401E-05  5.3795E-05  5.2140E-05  5.0581E-05
       4.9250E-05  4.8192E-05  4.7353E-05  4.6595E-05  4.5718E-05  4.4564E-05  4.3364E-05  4.2948E-05  4.3318E-05  4.4302E-05
       4.5700E-05  4.7283E-05  4.8817E-05  5.0096E-05  5.0999E-05
  27   6.3075E-05  6.4202E-05  6.4751E-05  6.4484E-05  6.3359E-05  6.1825E-05  6.0450E-05  5.9329E-05  5.8363E-05  5.7462E-05
       5.6566E-05  5.5642E-05  5.4667E-05  5.3619E-05  5.2479E-05  5.1243E-05  4.9940E-05  4.8626E-05  4.7354E-05  4.6201E-05
       4.5227E-05  4.4447E-05  4.3810E-05  4.3209E-05  4.2493E-05  4.1483E-05  4.0632E-05  4.0622E-05  4.1359E-05  4.2710E-05
       4.4493E-05  4.6473E-05  4.8383E-05  4.9977E-05  5.1110E-05
  28   6.0078E-05  6.0814E-05  6.1074E-05  6.0708E-05  5.9720E-05  5.8375E-05  5.7005E-05  5.5733E-05  5.4536E-05  5.3371E-05
       5.2210E-05  5.1041E-05  4.9862E-05  4.8673E-05  4.7476E-05  4.6282E-05  4.5117E-05  4.4015E-05  4.3006E-05  4.2124E-05
       4.1390E-05  4.0792E-05  4.0280E-05  3.9767E-05  3.9144E-05  3.8409E-05  3.8106E-05  3.8479E-05  3.9557E-05  4.1252E-05
       4.3404E-05  4.5769E-05  4.8044E-05  4.9941E-05  5.1285E-05
  29   5.7032E-05  5.7412E-05  5.7434E-05  5.7010E-05  5.6142E-05  5.4963E-05  5.3649E-05  5.2303E-05  5.0950E-05  4.9595E-05
       4.8242E-05  4.6903E-05  4.5591E-05  4.4323E-05  4.3112E-05  4.1974E-05  4.0930E-05  3.9997E-05  3.9186E-05  3.8505E-05
       3.7948E-05  3.7490E-05  3.7088E-05  3.6681E-05  3.6240E-05  3.5877E-05  3.5954E-05  3.6647E-05  3.8011E-05  4.0005E-05
       4.2492E-05  4.5218E-05  4.7839E-05  5.0016E-05  5.1543E-05
  30   5.4044E-05  5.4113E-05  5.3941E-05  5.3480E-05  5.2717E-05  5.1682E-05  5.0443E-05  4.9074E-05  4.7629E-05  4.6150E-05
       4.4672E-05  4.3226E-05  4.1841E-05  4.0542E-05  3.9349E-05  3.8281E-05  3.7350E-05  3.6565E-05  3.5922E-05  3.5410E-05
       3.5009E-05  3.4689E-05  3.4414E-05  3.4157E-05  3.3938E-05  3.3892E-05  3.4258E-05  3.5195E-05  3.6783E-05  3.9024E-05
       4.1807E-05  4.4864E-05  4.7804E-05  5.0228E-05  5.1899E-05
  31   5.1193E-05  5.0998E-05  5.0665E-05  5.0181E-05  4.9510E-05  4.8602E-05  4.7443E-05  4.6080E-05  4.4590E-05  4.3042E-05
       4.1495E-05  3.9997E-05  3.8585E-05  3.7290E-05  3.6139E-05  3.5149E-05  3.4331E-05  3.3685E-05  3.3198E-05  3.2847E-05
       3.2602E-05  3.2433E-05  3.2312E-05  3.2233E-05  3.2238E-05  3.2449E-05  3.3040E-05  3.4161E-05  3.5919E-05  3.8356E-05
       4.1391E-05  4.4746E-05  4.7966E-05  5.0591E-05  5.2356E-05
  32   4.8536E-05  4.8120E-05  4.7652E-05  4.7146E-05  4.6561E-05  4.5769E-05  4.4685E-05  4.3345E-05  4.1842E-05  4.0269E-05
       3.8700E-05  3.7191E-05  3.5787E-05  3.4524E-05  3.3430E-05  3.2525E-05  3.1819E-05  3.1308E-05  3.0973E-05  3.0783E-05
       3.0703E-05  3.0702E-05  3.0756E-05  3.0871E-05  3.1093E-05  3.1523E-05  3.2300E-05  3.3566E-05  3.5450E-05  3.8036E-05
       4.1281E-05  4.4894E-05  4.8347E-05  5.1110E-05  5.2906E-05
  33   4.6112E-05  4.5516E-05  4.4929E-05  4.4398E-05  4.3892E-05  4.3207E-05  4.2187E-05  4.0876E-05  3.9387E-05  3.7823E-05
       3.6267E-05  3.4780E-05  3.3410E-05  3.2197E-05  3.1170E-05  3.0353E-05  2.9757E-05  2.9378E-05  2.9194E-05  2.9168E-05
       2.9261E-05  2.9441E-05  2.9687E-05  3.0007E-05  3.0443E-05  3.1076E-05  3.2022E-05  3.3416E-05  3.5398E-05  3.8093E-05
       4.1504E-05  4.5336E-05  4.8953E-05  5.1772E-05  5.3526E-05
  34   4.3947E-05  4.3213E-05  4.2525E-05  4.1952E-05  4.1511E-05  4.0919E-05  3.9945E-05  3.8668E-05  3.7215E-05  3.5690E-05
       3.4175E-05  3.2735E-05  3.1419E-05  3.0267E-05  2.9313E-05  2.8583E-05  2.8092E-05  2.7842E-05  2.7805E-05  2.7943E-05
       2.8213E-05  2.8582E-05  2.9031E-05  2.9564E-05  3.0216E-05  3.1055E-05  3.2176E-05  3.3702E-05  3.5776E-05  3.8550E-05
       4.2084E-05  4.6084E-05  4.9773E-05  5.2538E-05  5.4170E-05
  35   4.2051E-05  4.1226E-05  4.0465E-05  3.9835E-05  3.9414E-05  3.8884E-05  3.7939E-05  3.6711E-05  3.5317E-05  3.3854E-05
       3.2404E-05  3.1028E-05  2.9779E-05  2.8698E-05  2.7819E-05  2.7171E-05  2.6780E-05  2.6651E-05  2.6757E-05  2.7054E-05
       2.7498E-05  2.8056E-05  2.8709E-05  2.9459E-05  3.0334E-05  3.1388E-05  3.2704E-05  3.4386E-05  3.6570E-05  3.9415E-05
       4.3026E-05  4.7131E-05  5.0752E-05  5.3334E-05  5.4769E-05
  36   4.0419E-05  3.9549E-05  3.8759E-05  3.8111E-05  3.7617E-05  3.7044E-05  3.6153E-05  3.4997E-05  3.3682E-05  3.2301E-05
       3.0930E-05  2.9634E-05  2.8463E-05  2.7457E-05  2.6653E-05  2.6084E-05  2.5782E-05  2.5765E-05  2.6004E-05  2.6448E-05
       2.7056E-05  2.7794E-05  2.8644E-05  2.9606E-05  3.0704E-05  3.1981E-05  3.3510E-05  3.5382E-05  3.7716E-05  4.0659E-05
       4.4317E-05  4.8409E-05  5.1764E-05  5.4042E-05  5.5237E-05
  37   3.9030E-05  3.8147E-05  3.7351E-05  3.6681E-05  3.6109E-05  3.5472E-05  3.4611E-05  3.3529E-05  3.2302E-05  3.1013E-05
       2.9735E-05  2.8528E-05  2.7441E-05  2.6516E-05  2.5790E-05  2.5296E-05  2.5072E-05  2.5156E-05  2.5510E-05  2.6083E-05
       2.6834E-05  2.7732E-05  2.8760E-05  2.9918E-05  3.1224E-05  3.2717E-05  3.4460E-05  3.6537E-05  3.9054E-05  4.2138E-05
       4.5932E-05  4.9684E-05  5.2585E-05  5.4514E-05  5.5487E-05
  38   3.7854E-05  3.6979E-05  3.6185E-05  3.5490E-05  3.4855E-05  3.4167E-05  3.3322E-05  3.2305E-05  3.1167E-05  2.9976E-05
       2.8797E-05  2.7685E-05  2.6689E-05  2.5850E-05  2.5203E-05  2.4785E-05  2.4632E-05  2.4801E-05  2.5246E-05  2.5920E-05
       2.6784E-05  2.7811E-05  2.8987E-05  3.0309E-05  3.1792E-05  3.3470E-05  3.5397E-05  3.7648E-05  4.0318E-05  4.3508E-05
       4.7166E-05  5.0431E-05  5.2965E-05  5.4630E-05  5.5457E-05
  39   3.6861E-05  3.6007E-05  3.5218E-05  3.4503E-05  3.3825E-05  3.3104E-05  3.2272E-05  3.1314E-05  3.0263E-05  2.9170E-05
       2.8093E-05  2.7082E-05  2.6181E-05  2.5432E-05  2.4869E-05  2.4530E-05  2.4454E-05  2.4680E-05  2.5184E-05  2.5924E-05
       2.6864E-05  2.7982E-05  2.9262E-05  3.0703E-05  3.2316E-05  3.4127E-05  3.6179E-05  3.8530E-05  4.1242E-05  4.4341E-05
       4.7643E-05  5.0579E-05  5.2853E-05  5.4359E-05  5.5131E-05
  40   3.6025E-05  3.5198E-05  3.4421E-05  3.3694E-05  3.2988E-05  3.2251E-05  3.1437E-05  3.0535E-05  2.9566E-05  2.8572E-05
       2.7598E-05  2.6690E-05  2.5889E-05  2.5233E-05  2.4757E-05  2.4495E-05  2.4486E-05  2.4755E-05  2.5290E-05  2.6060E-05
       2.7038E-05  2.8202E-05  2.9540E-05  3.1047E-05  3.2733E-05  3.4614E-05  3.6720E-05  3.9086E-05  4.1735E-05  4.4633E-05
       4.7587E-05  5.0235E-05  5.2321E-05  5.3748E-05  5.4541E-05



            MULT. ARRAY: HK_Par1_M3
 READING ON UNIT    8 WITH FORMAT: (FREE)              

            1           2           3           4           5           6           7           8           9          10
           11          12          13          14          15          16          17          18          19          20
           21          22          23          24          25          26          27          28          29          30
           31          32          33          34          35
 ........................................................................................................................
   1   9.0768E-05  9.0401E-05  8.9952E-05  8.9444E-05  8.8931E-05  8.8496E-05  8.8223E-05  8.8166E-05  8.8356E-05  8.8804E-05
       8.9511E-05  9.0468E-05  9.1656E-05  9.3045E-05  9.4593E-05  9.6246E-05  9.7942E-05  9.9613E-05  1.0120E-04  1.0264E-04
       1.0392E-04  1.0502E-04  1.0596E-04  1.0676E-04  1.0747E-04  1.0811E-04  1.0871E-04  1.0930E-04  1.0990E-04  1.1050E-04
       1.1109E-04  1.1163E-04  1.1209E-04  1.1246E-04  1.1273E-04
   2   9.0981E-05  9.0592E-05  9.0100E-05  8.9525E-05  8.8926E-05  8.8410E-05  8.8081E-05  8.8001E-05  8.8196E-05  8.8677E-05
       8.9443E-05  9.0485E-05  9.1781E-05  9.3298E-05  9.4988E-05  9.6789E-05  9.8627E-05  1.0042E-04  1.0210E-04  1.0361E-04
       1.0491E-04  1.0601E-04  1.0691E-04  1.0767E-04  1.0832E-04  1.0891E-04  1.0947E-04  1.1002E-04  1.1058E-04  1.1117E-04
       1.1177E-04  1.1232E-04  1.1276E-04  1.1310E-04  1.1333E-04
   3   9.1225E-05  9.0819E-05  9.0293E-05  8.9661E-05  8.8982E-05  8.8390E-05  8.8018E-05  8.7929E-05  8.8142E-05  8.8667E-05
       8.9503E-05  9.0641E-05  9.2058E-05  9.3717E-05  9.5563E-05  9.7523E-05  9.9510E-05  1.0143E-04  1.0320E-04  1.0475E-04
       1.0607E-04  1.0715E-04  1.0801E-04  1.0870E-04  1.0928E-04  1.0981E-04  1.1031E-04  1.1081E-04  1.1133E-04  1.1190E-04
       1.1250E-04  1.1305E-04  1.1347E-04  1.1377E-04  1.1395E-04
   4   9.1499E-05  9.1078E-05  9.0526E-05  8.9851E-05  8.9100E-05  8.8441E-05  8.8045E-05  8.7959E-05  8.8201E-05  8.8779E-05
       8.9696E-05  9.0942E-05  9.2494E-05  9.4309E-05  9.6327E-05  9.8463E-05  1.0062E-04  1.0267E-04  1.0453E-04  1.0611E-04
       1.0743E-04  1.0846E-04  1.0923E-04  1.0984E-04  1.1035E-04  1.1080E-04  1.1123E-04  1.1167E-04  1.1215E-04  1.1268E-04
       1.1328E-04  1.1382E-04  1.1421E-04  1.1445E-04  1.1458E-04
   5   9.1798E-05  9.1361E-05  9.0787E-05  9.0084E-05  8.9278E-05  8.8572E-05  8.8170E-05  8.8097E-05  8.8372E-05  8.9010E-05
       9.0016E-05  9.1381E-05  9.3081E-05  9.5070E-05  9.7278E-05  9.9611E-05  1.0195E-04  1.0416E-04  1.0612E-04  1.0772E-04
       1.0901E-04  1.0993E-04  1.1060E-04  1.1110E-04  1.1150E-04  1.1188E-04  1.1224E-04  1.1262E-04  1.1304E-04  1.1352E-04
       1.1409E-04  1.1462E-04  1.1495E-04  1.1513E-04  1.1521E-04
   6   9.2121E-05  9.1666E-05  9.1064E-05  9.0327E-05  8.9514E-05  8.8811E-05  8.8400E-05  8.8336E-05  8.8646E-05  8.9348E-05
       9.0449E-05  9.1943E-05  9.3804E-05  9.5982E-05  9.8398E-05  1.0095E-04  1.0349E-04  1.0589E-04  1.0799E-04  1.0965E-04
       1.1080E-04  1.1156E-04  1.1206E-04  1.1243E-04  1.1274E-04  1.1303E-04  1.1332E-04  1.1365E-04  1.1401E-04  1.1444E-04
       1.1494E-04  1.1539E-04  1.1567E-04  1.1580E-04  1.1582E-04
   7   9.2474E-05  9.1999E-05  9.1370E-05  9.0612E-05  8.9808E-05  8.9122E-05  8.8712E-05  8.8659E-05  8.9004E-05  8.9772E-05
       9.0974E-05  9.2604E-05  9.4635E-05  9.7013E-05  9.9652E-05  1.0243E-04  1.0519E-04  1.0777E-04  1.1000E-04  1.1170E-04
       1.1268E-04  1.1325E-04  1.1358E-04  1.1381E-04  1.1401E-04  1.1422E-04  1.1446E-04  1.1473E-04  1.1505E-04  1.1541E-04
       1.1581E-04  1.1617E-04  1.1638E-04  1.1646E-04  1.1642E-04
   8   9.2861E-05  9.2368E-05  9.1717E-05  9.0947E-05  9.0153E-05  8.9482E-05  8.9079E-05  8.9040E-05  8.9421E-05  9.0256E-05
       9.1560E-05  9.3329E-05  9.5537E-05  9.8124E-05  1.0099E-04  1.0400E-04  1.0696E-04  1.0969E-04  1.1197E-04  1.1361E-04
       1.1450E-04  1.1490E-04  1.1508E-04  1.1518E-04  1.1529E-04  1.1544E-04  1.1563E-04  1.1586E-04  1.1612E-04  1.1642E-04
       1.1672E-04  1.1696E-04  1.1710E-04  1.1710E-04  1.1701E-04
   9   9.3288E-05  9.2782E-05  9.2113E-05  9.1331E-05  9.0537E-05  8.9872E-05  8.9474E-05  8.9449E-05  8.9866E-05  9.0767E-05
       9.2173E-05  9.4083E-05  9.6469E-05  9.9264E-05  1.0236E-04  1.0558E-04  1.0872E-04  1.1154E-04  1.1382E-04  1.1536E-04
       1.1615E-04  1.1643E-04  1.1649E-04  1.1649E-04  1.1653E-04  1.1664E-04  1.1680E-04  1.1700E-04  1.1721E-04  1.1743E-04
       1.1763E-04  1.1777E-04  1.1781E-04  1.1774E-04  1.1758E-04
  10   9.3760E-05  9.3245E-05  9.2557E-05  9.1756E-05  9.0948E-05  9.0274E-05  8.9872E-05  8.9856E-05  9.0306E-05  9.1270E-05
       9.2775E-05  9.4823E-05  9.7383E-05  1.0038E-04  1.0369E-04  1.0711E-04  1.1039E-04  1.1325E-04  1.1547E-04  1.1690E-04
       1.1759E-04  1.1778E-04  1.1775E-04  1.1768E-04  1.1769E-04  1.1779E-04  1.1794E-04  1.1812E-04  1.1830E-04  1.1845E-04
       1.1855E-04  1.1858E-04  1.1851E-04  1.1836E-04  1.1812E-04
  11   9.4278E-05  9.3757E-05  9.3047E-05  9.2214E-05  9.1373E-05  9.0669E-05  9.0248E-05  9.0232E-05  9.0708E-05  9.1731E-05
       9.3330E-05  9.5508E-05  9.8234E-05  1.0143E-04  1.0494E-04  1.0853E-04  1.1192E-04  1.1478E-04  1.1692E-04  1.1822E-04
       1.1880E-04  1.1890E-04  1.1881E-04  1.1872E-04  1.1874E-04  1.1886E-04  1.1904E-04  1.1922E-04  1.1936E-04  1.1943E-04
       1.1944E-04  1.1936E-04  1.1919E-04  1.1895E-04  1.1863E-04
  12   9.4842E-05  9.4317E-05  9.3578E-05  9.2696E-05  9.1797E-05  9.1038E-05  9.0577E-05  9.0548E-05  9.1043E-05  9.2117E-05
       9.3802E-05  9.6100E-05  9.8979E-05  1.0235E-04  1.0605E-04  1.0981E-04  1.1328E-04  1.1612E-04  1.1814E-04  1.1930E-04
       1.1977E-04  1.1980E-04  1.1967E-04  1.1959E-04  1.1964E-04  1.1983E-04  1.2006E-04  1.2026E-04  1.2037E-04  1.2037E-04
       1.2028E-04  1.2010E-04  1.1983E-04  1.1949E-04  1.1909E-04
  13   9.5448E-05  9.4922E-05  9.4143E-05  9.3191E-05  9.2205E-05  9.1360E-05  9.0836E-05  9.0777E-05  9.1281E-05  9.2398E-05
       9.4158E-05  9.6565E-05  9.9581E-05  1.0311E-04  1.0698E-04  1.1089E-04  1.1445E-04  1.1726E-04  1.1914E-04  1.2015E-04
       1.2050E-04  1.2048E-04  1.2034E-04  1.2028E-04  1.2041E-04  1.2069E-04  1.2101E-04  1.2123E-04  1.2131E-04  1.2125E-04
       1.2106E-04  1.2078E-04  1.2041E-04  1.1998E-04  1.1950E-04
  14   9.6090E-05  9.5564E-05  9.4735E-05  9.3688E-05  9.2582E-05  9.1619E-05  9.1001E-05  9.0896E-05  9.1398E-05  9.2549E-05
       9.4377E-05  9.6881E-05  1.0002E-04  1.0368E-04  1.0769E-04  1.1174E-04  1.1538E-04  1.1816E-04  1.1989E-04  1.2077E-04
       1.2105E-04  1.2099E-04  1.2084E-04  1.2082E-04  1.2104E-04  1.2145E-04  1.2187E-04  1.2212E-04  1.2217E-04  1.2202E-04
       1.2174E-04  1.2136E-04  1.2091E-04  1.2039E-04  1.1983E-04
  15   9.6762E-05  9.6238E-05  9.5346E-05  9.4177E-05  9.2917E-05  9.1796E-05  9.1053E-05  9.0882E-05  9.1374E-05  9.2551E-05
       9.4443E-05  9.7039E-05  1.0028E-04  1.0405E-04  1.0816E-04  1.1232E-04  1.1602E-04  1.1874E-04  1.2039E-04  1.2121E-04
       1.2146E-04  1.2140E-04  1.2127E-04  1.2127E-04  1.2156E-04  1.2211E-04  1.2264E-04  1.2291E-04  1.2290E-04  1.2268E-04
       1.2231E-04  1.2184E-04  1.2130E-04  1.2071E-04  1.2008E-04
  16   9.7450E-05  9.6933E-05  9.5965E-05  9.4647E-05  9.3194E-05  9.1880E-05  9.0979E-05  9.0722E-05  9.1191E-05  9.2394E-05
       9.4356E-05  9.7047E-05  1.0038E-04  1.0423E-04  1.0839E-04  1.1259E-04  1.1635E-04  1.1903E-04  1.2068E-04  1.2154E-04
       1.2184E-04  1.2182E-04  1.2171E-04  1.2171E-04  1.2203E-04  1.2270E-04  1.2333E-04  1.2358E-04  1.2349E-04  1.2318E-04
       1.2273E-04  1.2218E-04  1.2157E-04  1.2091E-04  1.2024E-04
  17   9.8141E-05  9.7636E-05  9.6580E-05  9.5084E-05  9.3401E-05  9.1858E-05  9.0776E-05  9.0401E-05  9.0831E-05  9.2076E-05
       9.4129E-05  9.6932E-05  1.0037E-04  1.0428E-04  1.0843E-04  1.1257E-04  1.1635E-04  1.1905E-04  1.2085E-04  1.2188E-04
       1.2231E-04  1.2237E-04  1.2228E-04  1.2227E-04  1.2254E-04  1.2324E-04  1.2390E-04  1.2407E-04  1.2390E-04  1.2351E-04
       1.2298E-04  1.2237E-04  1.2170E-04  1.2100E-04  1.2028E-04
  18   9.8811E-05  9.8329E-05  9.7177E-05  9.5472E-05  9.3517E-05  9.1708E-05  9.0419E-05  8.9918E-05  9.0316E-05  9.1620E-05
       9.3793E-05  9.6740E-05  1.0031E-04  1.0428E-04  1.0838E-04  1.1235E-04  1.1594E-04  1.1893E-04  1.2107E-04  1.2237E-04
       1.2297E-04  1.2311E-04  1.2305E-04  1.2303E-04  1.2325E-04  1.2378E-04  1.2426E-04  1.2434E-04  1.2409E-04  1.2363E-04
       1.2305E-04  1.2239E-04  1.2169E-04  1.2096E-04  1.2022E-04
  19   9.9432E-05  9.8987E-05  9.7735E-05  9.5795E-05  9.3526E-05  9.1411E-05  8.9898E-05  8.9278E-05  8.9668E-05  9.1061E-05
       9.3387E-05  9.6518E-05  1.0026E-04  1.0435E-04  1.0846E-04  1.1227E-04  1.1569E-04  1.1900E-04  1.2152E-04  1.2310E-04
       1.2386E-04  1.2408E-04  1.2402E-04  1.2394E-04  1.2402E-04  1.2429E-04  1.2450E-04  1.2443E-04  1.2409E-04  1.2356E-04
       1.2293E-04  1.2225E-04  1.2153E-04  1.2079E-04  1.2005E-04
  20   9.9963E-05  9.9576E-05  9.8230E-05  9.6035E-05  9.3411E-05  9.0956E-05  8.9214E-05  8.8501E-05  8.8919E-05  9.0436E-05
       9.2951E-05  9.6310E-05  1.0029E-04  1.0458E-04  1.0881E-04  1.1264E-04  1.1611E-04  1.1957E-04  1.2235E-04  1.2412E-04
       1.2498E-04  1.2521E-04  1.2511E-04  1.2491E-04  1.2478E-04  1.2473E-04  1.2463E-04  1.2435E-04  1.2389E-04  1.2330E-04
       1.2264E-04  1.2194E-04  1.2122E-04  1.2049E-04  1.1976E-04
  21   1.0035E-04  1.0005E-04  9.8629E-05  9.6175E-05  9.3160E-05  9.0340E-05  8.8382E-05  8.7618E-05  8.8107E-05  8.9781E-05
       9.2514E-05  9.6135E-05  1.0040E-04  1.0499E-04  1.0948E-04  1.1350E-04  1.1709E-04  1.2066E-04  1.2355E-04  1.2538E-04
       1.2624E-04  1.2642E-04  1.2620E-04  1.2582E-04  1.2542E-04  1.2504E-04  1.2463E-04  1.2412E-04  1.2352E-04  1.2287E-04
       1.2218E-04  1.2148E-04  1.2078E-04  1.2008E-04  1.1937E-04
  22   1.0052E-04  1.0033E-04  9.8883E-05  9.6195E-05  9.2769E-05  8.9571E-05  8.7437E-05  8.6676E-05  8.7278E-05  8.9133E-05
       9.2097E-05  9.5991E-05  1.0057E-04  1.0551E-04  1.1039E-04  1.1478E-04  1.1854E-04  1.2220E-04  1.2501E-04  1.2675E-04
       1.2751E-04  1.2756E-04  1.2718E-04  1.2658E-04  1.2590E-04  1.2519E-04  1.2446E-04  1.2373E-04  1.2299E-04  1.2227E-04
       1.2157E-04  1.2089E-04  1.2022E-04  1.1955E-04  1.1888E-04
  23   1.0040E-04  1.0033E-04  9.8915E-05  9.6067E-05  9.2236E-05  8.8675E-05  8.6437E-05  8.5742E-05  8.6486E-05  8.8523E-05
       9.1704E-05  9.5853E-05  1.0074E-04  1.0604E-04  1.1136E-04  1.1627E-04  1.2045E-04  1.2394E-04  1.2652E-04  1.2805E-04
       1.2863E-04  1.2851E-04  1.2794E-04  1.2710E-04  1.2614E-04  1.2512E-04  1.2411E-04  1.2316E-04  1.2230E-04  1.2153E-04
       1.2082E-04  1.2017E-04  1.1954E-04  1.1892E-04  1.1829E-04
  24   9.9896E-05  9.9922E-05  9.8599E-05  9.5732E-05  9.1569E-05  8.7707E-05  8.5475E-05  8.4895E-05  8.5780E-05  8.7972E-05
       9.1328E-05  9.5683E-05  1.0082E-04  1.0643E-04  1.1212E-04  1.1746E-04  1.2207E-04  1.2543E-04  1.2777E-04  1.2908E-04
       1.2947E-04  1.2917E-04  1.2839E-04  1.2733E-04  1.2611E-04  1.2481E-04  1.2355E-04  1.2242E-04  1.2146E-04  1.2065E-04
       1.1996E-04  1.1934E-04  1.1877E-04  1.1820E-04  1.1763E-04
  25   9.8942E-05  9.8993E-05  9.7758E-05  9.5041E-05  9.0785E-05  8.6784E-05  8.4679E-05  8.4208E-05  8.5190E-05  8.7481E-05
       9.0949E-05  9.5439E-05  1.0074E-04  1.0655E-04  1.1249E-04  1.1809E-04  1.2284E-04  1.2630E-04  1.2854E-04  1.2970E-04
       1.2992E-04  1.2944E-04  1.2847E-04  1.2720E-04  1.2576E-04  1.2424E-04  1.2276E-04  1.2150E-04  1.2048E-04  1.1966E-04
       1.1900E-04  1.1843E-04  1.1791E-04  1.1741E-04  1.1691E-04
  26   9.7533E-05  9.7503E-05  9.6262E-05  9.3623E-05  8.9795E-05  8.6172E-05  8.4121E-05  8.3688E-05  8.4703E-05  8.7027E-05
       9.0534E-05  9.5079E-05  1.0046E-04  1.0637E-04  1.1242E-04  1.1812E-04  1.2296E-04  1.2651E-04  1.2876E-04  1.2983E-04
       1.2993E-04  1.2929E-04  1.2815E-04  1.2671E-04  1.2509E-04  1.2338E-04  1.2175E-04  1.2042E-04  1.1938E-04  1.1858E-04
       1.1795E-04  1.1744E-04  1.1699E-04  1.1656E-04  1.1612E-04
  27   9.5733E-05  9.5549E-05  9.4280E-05  9.1833E-05  8.8557E-05  8.5489E-05  8.3637E-05  8.3250E-05  8.4262E-05  8.6563E-05
       9.0044E-05  9.4566E-05  9.9932E-05  1.0585E-04  1.1192E-04  1.1765E-04  1.2252E-04  1.2615E-04  1.2843E-04  1.2947E-04
       1.2948E-04  1.2872E-04  1.2744E-04  1.2585E-04  1.2409E-04  1.2225E-04  1.2055E-04  1.1921E-04  1.1819E-04  1.1742E-04
       1.1685E-04  1.1640E-04  1.1602E-04  1.1566E-04  1.1529E-04
  28   9.3655E-05  9.3295E-05  9.2028E-05  8.9851E-05  8.7131E-05  8.4628E-05  8.3075E-05  8.2784E-05  8.3789E-05  8.6034E-05
       8.9436E-05  9.3871E-05  9.9155E-05  1.0501E-04  1.1103E-04  1.1673E-04  1.2162E-04  1.2530E-04  1.2762E-04  1.2866E-04
       1.2862E-04  1.2778E-04  1.2639E-04  1.2467E-04  1.2281E-04  1.2092E-04  1.1926E-04  1.1794E-04  1.1694E-04  1.1622E-04
       1.1570E-04  1.1532E-04  1.1501E-04  1.1472E-04  1.1442E-04
  29   9.1422E-05  9.0899E-05  8.9666E-05  8.7781E-05  8.5572E-05  8.3588E-05  8.2367E-05  8.2211E-05  8.3220E-05  8.5393E-05
       8.8678E-05  9.2977E-05  9.8123E-05  1.0385E-04  1.0978E-04  1.1544E-04  1.2032E-04  1.2404E-04  1.2641E-04  1.2746E-04
       1.2741E-04  1.2651E-04  1.2506E-04  1.2328E-04  1.2138E-04  1.1952E-04  1.1790E-04  1.1662E-04  1.1566E-04  1.1498E-04
       1.1452E-04  1.1421E-04  1.1397E-04  1.1375E-04  1.1352E-04
  30   8.9145E-05  8.8482E-05  8.7305E-05  8.5700E-05  8.3937E-05  8.2410E-05  8.1509E-05  8.1502E-05  8.2522E-05  8.4611E-05
       8.7754E-05  9.1880E-05  9.6846E-05  1.0241E-04  1.0822E-04  1.1381E-04  1.1869E-04  1.2244E-04  1.2485E-04  1.2594E-04
       1.2589E-04  1.2499E-04  1.2352E-04  1.2174E-04  1.1985E-04  1.1806E-04  1.1650E-04  1.1527E-04  1.1435E-04  1.1373E-04
       1.1332E-04  1.1307E-04  1.1291E-04  1.1276E-04  1.1260E-04
  31   8.6911E-05  8.6134E-05  8.5018E-05  8.3664E-05  8.2281E-05  8.1145E-05  8.0530E-05  8.0662E-05  8.1690E-05  8.3687E-05
       8.6668E-05  9.0593E-05  9.5347E-05  1.0072E-04  1.0639E-04  1.1190E-04  1.1677E-04  1.2056E-04  1.2302E-04  1.2415E-04
       1.2414E-04  1.2327E-04  1.2182E-04  1.2008E-04  1.1827E-04  1.1655E-04  1.1507E-04  1.1390E-04  1.1304E-04  1.1246E-04
       1.1211E-04  1.1192E-04  1.1183E-04  1.1175E-04  1.1166E-04
  32   8.4788E-05  8.3921E-05  8.2863E-05  8.1721E-05  8.0659E-05  7.9849E-05  7.9473E-05  7.9721E-05  8.0744E-05  8.2639E-05
       8.5445E-05  8.9146E-05  9.3661E-05  9.8817E-05  1.0432E-04  1.0976E-04  1.1462E-04  1.1844E-04  1.2096E-04  1.2215E-04
       1.2220E-04  1.2139E-04  1.2002E-04  1.1836E-04  1.1663E-04  1.1501E-04  1.1362E-04  1.1252E-04  1.1173E-04  1.1120E-04
       1.1090E-04  1.1077E-04  1.1074E-04  1.1074E-04  1.1071E-04
  33   8.2827E-05  8.1890E-05  8.0881E-05  7.9911E-05  7.9115E-05  7.8574E-05  7.8388E-05  7.8720E-05  7.9724E-05  8.1506E-05
       8.4124E-05  8.7586E-05  9.1839E-05  9.6750E-05  1.0207E-04  1.0742E-04  1.1228E-04  1.1615E-04  1.1872E-04  1.1998E-04
       1.2011E-04  1.1939E-04  1.1813E-04  1.1658E-04  1.1497E-04  1.1346E-04  1.1217E-04  1.1116E-04  1.1043E-04  1.0995E-04
       1.0970E-04  1.0961E-04  1.0964E-04  1.0972E-04  1.0977E-04
  34   8.1063E-05  8.0080E-05  7.9111E-05  7.8273E-05  7.7692E-05  7.7366E-05  7.7319E-05  7.7705E-05  7.8676E-05  8.0340E-05
       8.2765E-05  8.5975E-05  8.9945E-05  9.4582E-05  9.9691E-05  1.0493E-04  1.0980E-04  1.1371E-04  1.1635E-04  1.1768E-04
       1.1791E-04  1.1731E-04  1.1618E-04  1.1477E-04  1.1329E-04  1.1191E-04  1.1073E-04  1.0981E-04  1.0915E-04  1.0873E-04
       1.0851E-04  1.0847E-04  1.0856E-04  1.0871E-04  1.0883E-04
  35   7.9521E-05  7.8517E-05  7.7590E-05  7.6846E-05  7.6422E-05  7.6256E-05  7.6302E-05  7.6723E-05  7.7654E-05  7.9200E-05
       8.1432E-05  8.4385E-05  8.8057E-05  9.2390E-05  9.7247E-05  1.0235E-04  1.0722E-04  1.1118E-04  1.1388E-04  1.1529E-04
       1.1563E-04  1.1517E-04  1.1419E-04  1.1295E-04  1.1163E-04  1.1038E-04  1.0932E-04  1.0850E-04  1.0791E-04  1.0754E-04
       1.0735E-04  1.0734E-04  1.0750E-04  1.0772E-04  1.0792E-04
  36   7.8212E-05  7.7216E-05  7.6342E-05  7.5690E-05  7.5340E-05  7.5249E-05  7.5375E-05  7.5824E-05  7.6717E-05  7.8150E-05
       8.0196E-05  8.2898E-05  8.6265E-05  9.0270E-05  9.4826E-05  9.9744E-05  1.0459E-04  1.0860E-04  1.1134E-04  1.1283E-04
       1.1329E-04  1.1300E-04  1.1220E-04  1.1113E-04  1.0999E-04  1.0889E-04  1.0796E-04  1.0723E-04  1.0673E-04  1.0641E-04
       1.0624E-04  1.0626E-04  1.0649E-04  1.0678E-04  1.0703E-04
  37   7.7135E-05  7.6171E-05  7.5357E-05  7.4776E-05  7.4471E-05  7.4417E-05  7.4592E-05  7.5061E-05  7.5918E-05  7.7251E-05
       7.9128E-05  8.1593E-05  8.4665E-05  8.8332E-05  9.2543E-05  9.7187E-05  1.0198E-04  1.0600E-04  1.0877E-04  1.1034E-04
       1.1094E-04  1.1082E-04  1.1022E-04  1.0935E-04  1.0839E-04  1.0746E-04  1.0665E-04  1.0603E-04  1.0560E-04  1.0535E-04
       1.0519E-04  1.0526E-04  1.0555E-04  1.0590E-04  1.0620E-04
  38   7.6279E-05  7.5365E-05  7.4616E-05  7.4092E-05  7.3823E-05  7.3794E-05  7.3999E-05  7.4479E-05  7.5306E-05  7.6554E-05
       7.8284E-05  8.0539E-05  8.3342E-05  8.6689E-05  9.0544E-05  9.4825E-05  9.9409E-05  1.0342E-04  1.0619E-04  1.0784E-04
       1.0859E-04  1.0867E-04  1.0828E-04  1.0763E-04  1.0685E-04  1.0609E-04  1.0542E-04  1.0491E-04  1.0456E-04  1.0435E-04
       1.0427E-04  1.0440E-04  1.0471E-04  1.0508E-04  1.0541E-04
  39   7.5628E-05  7.4781E-05  7.4099E-05  7.3631E-05  7.3396E-05  7.3390E-05  7.3617E-05  7.4105E-05  7.4911E-05  7.6092E-05
       7.7703E-05  7.9783E-05  8.2355E-05  8.5422E-05  8.8963E-05  9.2919E-05  9.7099E-05  1.0089E-04  1.0365E-04  1.0539E-04
       1.0630E-04  1.0658E-04  1.0641E-04  1.0597E-04  1.0540E-04  1.0481E-04  1.0428E-04  1.0387E-04  1.0360E-04  1.0347E-04
       1.0347E-04  1.0365E-04  1.0396E-04  1.0433E-04  1.0466E-04
  40   7.5159E-05  7.4396E-05  7.3787E-05  7.3374E-05  7.3176E-05  7.3197E-05  7.3445E-05  7.3944E-05  7.4738E-05  7.5873E-05
       7.7393E-05  7.9334E-05  8.1715E-05  8.4541E-05  8.7791E-05  9.1399E-05  9.5155E-05  9.8589E-05  1.0124E-04  1.0304E-04
       1.0409E-04  1.0457E-04  1.0462E-04  1.0440E-04  1.0403E-04  1.0361E-04  1.0323E-04  1.0294E-04  1.0276E-04  1.0269E-04
       1.0276E-04  1.0296E-04  1.0327E-04  1.0363E-04  1.0396E-04



             ZONE ARRAY: HK_Par1_Z1
 READING ON UNIT   13 WITH FORMAT: (FREE)              



             ZONE ARRAY: HK_Par1_Z2
 READING ON UNIT   13 WITH FORMAT: (FREE)              



             ZONE ARRAY: HK_Par1_Z3
 READING ON UNIT   13 WITH FORMAT: (FREE)              

 LPF -- LAYER-PROPERTY FLOW PACKAGE, VERSION 7, 5/2/2005
         INPUT READ FROM UNIT   11
 # LPF: Layer Property Flow package file
 CELL-BY-CELL FLOWS WILL BE SAVED ON UNIT   50
 HEAD AT CELLS THAT CONVERT TO DRY=   999.00    
     1 Named Parameters     

   LAYER FLAGS:
 LAYER       LAYTYP        LAYAVG         CHANI        LAYVKA        LAYWET
 ---------------------------------------------------------------------------
    1             0             0     1.000E+00             1             0
    2             0             0     1.000E+00             1             0
    3             0             0     1.000E+00             1             0

   INTERPRETATION OF LAYER FLAGS:
                        INTERBLOCK     HORIZONTAL    DATA IN
         LAYER TYPE   TRANSMISSIVITY   ANISOTROPY   ARRAY VKA   WETTABILITY
 LAYER      (LAYTYP)      (LAYAVG)       (CHANI)      (LAYVKA)      (LAYWET)
 ---------------------------------------------------------------------------
    1      CONFINED      HARMONIC     1.000E+00    ANISOTROPY  NON-WETTABLE
    2      CONFINED      HARMONIC     1.000E+00    ANISOTROPY  NON-WETTABLE
    3      CONFINED      HARMONIC     1.000E+00    ANISOTROPY  NON-WETTABLE

 WETTING CAPABILITY IS NOT ACTIVE IN ANY LAYER

 PARAMETERS DEFINED IN THE LPF PACKAGE

 PARAMETER NAME:HK_Par1      TYPE:HK     CLUSTERS:   3
 Parameter value from package file is:    1.0000    
                LAYER:   1    MULTIPLIER ARRAY: HK_Par1_M1    ZONE ARRAY: HK_Par1_Z1
                ZONE VALUES:    1
                LAYER:   2    MULTIPLIER ARRAY: HK_Par1_M2    ZONE ARRAY: HK_Par1_Z2
                ZONE VALUES:    1
                LAYER:   3    MULTIPLIER ARRAY: HK_Par1_M3    ZONE ARRAY: HK_Par1_Z3
                ZONE VALUES:    1

    HYD. COND. ALONG ROWS FOR LAYER   1 WILL BE DEFINED BY PARAMETERS
 (PRINT FLAG=  -1)

    HYD. COND. ALONG ROWS is defined by the following parameters:
 HK_Par1   


              HYD. COND. ALONG ROWS FOR LAYER   1

  HORIZ. TO VERTICAL ANI. =   1.00000     FOR LAYER   1

    HYD. COND. ALONG ROWS FOR LAYER   2 WILL BE DEFINED BY PARAMETERS
 (PRINT FLAG=  -1)

    HYD. COND. ALONG ROWS is defined by the following parameters:
 HK_Par1   


              HYD. COND. ALONG ROWS FOR LAYER   2

  HORIZ. TO VERTICAL ANI. =   1.00000     FOR LAYER   2

    HYD. COND. ALONG ROWS FOR LAYER   3 WILL BE DEFINED BY PARAMETERS
 (PRINT FLAG=  -1)

    HYD. COND. ALONG ROWS is defined by the following parameters:
 HK_Par1   


              HYD. COND. ALONG ROWS FOR LAYER   3

  HORIZ. TO VERTICAL ANI. =   1.00000     FOR LAYER   3

 WEL -- WELL PACKAGE, VERSION 7, 5/2/2005 INPUT READ FROM UNIT   12
 # WEL: Well package file
 No named parameters
 MAXIMUM OF      3 ACTIVE WELLS AT ONE TIME
 CELL-BY-CELL FLOWS WILL BE SAVED ON UNIT   54


     0 Well parameters

 CHD -- TIME-VARIANT SPECIFIED-HEAD OPTION, VERSION 7, 5/2/2005
 INPUT READ FROM UNIT   40
 # CHD: Time-Variant Specified-Head package file created
 No named parameters
 MAXIMUM OF    240 TIME-VARIANT SPECIFIED-HEAD CELLS AT ONE TIME
 AUXILIARY CHD VARIABLE: IFACE           


     0 TIME-VARIANT SPECIFIED-HEAD PARAMETERS

 PCG -- CONJUGATE-GRADIENT SOLUTION PACKAGE, VERSION 7, 5/2/2005
 MAXIMUM OF   1000 CALLS OF SOLUTION ROUTINE
 MAXIMUM OF     40 INTERNAL ITERATIONS PER CALL TO SOLUTION ROUTINE
 MATRIX PRECONDITIONING TYPE :    1



                                    SOLUTION BY THE CONJUGATE-GRADIENT METHOD
                                   -------------------------------------------
                    MAXIMUM NUMBER OF CALLS TO PCG ROUTINE =     1000
                        MAXIMUM ITERATIONS PER CALL TO PCG =       40
                               MATRIX PRECONDITIONING TYPE =        1
        RELAXATION FACTOR (ONLY USED WITH PRECOND. TYPE 1) =    0.10000E+01
 PARAMETER OF POLYNOMIAL PRECOND. = 2 (2) OR IS CALCULATED :        2
                         HEAD CHANGE CRITERION FOR CLOSURE =    0.10000E-05
                     RESIDUAL CHANGE CRITERION FOR CLOSURE =    0.10000E-05
            PCG HEAD AND RESIDUAL CHANGE PRINTOUT INTERVAL =        5
     PRINTING FROM SOLVER IS LIMITED(1) OR SUPPRESSED (>1) =        0
                                         DAMPING PARAMETER =    0.10000E+01

 OBS2BAS7 -- HEAD OBSERVATIONS, VERSION 2.0, 2/28/2006
 INPUT READ FROM UNIT  18
 # HOB: Head Observation package file

 NUMBER OF HEADS....................................:   36
   NUMBER OF MULTILAYER HEADS.......................:    0
   MAXIMUM NUMBER OF LAYERS FOR MULTILAYER HEADS....:    2
 HEAD OBSERVATIONS WILL BE SAVED ON UNIT............:   14
 SIMULATED EQUIVALENT HEAD AT DRY CELLS WILL BE:    999.000    

 OBSERVED HEAD DATA -- TIME OFFSETS ARE MULTIPLIED BY:   1.0000    

                    REFER.
       OBSERVATION  STRESS    TIME
  OBS#    NAME      PERIOD   OFFSET    OBSERVATION
     1 obs1_01          1    1.000       0.000    
     2 obs1_02          1    1.000       0.000    
     3 obs1_03          1    1.000       0.000    
     4 obs1_04          1    1.000       0.000    
     5 obs1_05          1    1.000       0.000    
     6 obs1_06          1    1.000       0.000    
     7 obs1_07          1    1.000       0.000    
     8 obs1_08          1    1.000       0.000    
     9 obs1_09          1    1.000       0.000    
    10 obs1_10          1    1.000       0.000    
    11 obs1_11          1    1.000       0.000    
    12 obs1_12          1    1.000       0.000    
    13 obs2_01          1    1.000       0.000    
    14 obs2_02          1    1.000       0.000    
    15 obs2_03          1    1.000       0.000    
    16 obs2_04          1    1.000       0.000    
    17 obs2_05          1    1.000       0.000    
    18 obs2_06          1    1.000       0.000    
    19 obs2_07          1    1.000       0.000    
    20 obs2_08          1    1.000       0.000    
    21 obs2_09          1    1.000       0.000    
    22 obs2_10          1    1.000       0.000    
    23 obs2_11          1    1.000       0.000    
    24 obs2_12          1    1.000       0.000    
    25 obs3_01          1    1.000       0.000    
    26 obs3_02          1    1.000       0.000    
    27 obs3_03          1    1.000       0.000    
    28 obs3_04          1    1.000       0.000    
    29 obs3_05          1    1.000       0.000    
    30 obs3_06          1    1.000       0.000    
    31 obs3_07          1    1.000       0.000    
    32 obs3_08          1    1.000       0.000    
    33 obs3_09          1    1.000       0.000    
    34 obs3_10          1    1.000       0.000    
    35 obs3_11          1    1.000       0.000    
    36 obs3_12          1    1.000       0.000    

                                                     HEAD CHANGE
                                                      REFERENCE
        OBSERVATION                   ROW     COL    OBSERVATION
  OBS#     NAME       LAY  ROW  COL  OFFSET  OFFSET   (IF > 0)
     1  obs1_01         1    5    5   0.000   0.000        0
     2  obs1_02         1    5   31   0.000   0.000        0
     3  obs1_03         1   16    8   0.000   0.000        0
     4  obs1_04         1   17   26   0.000   0.000        0
     5  obs1_05         1   35    5   0.000   0.000        0
     6  obs1_06         1   37   31   0.000   0.000        0
     7  obs1_07         1   23   17   0.000   0.000        0
     8  obs1_08         1    6   20   0.000   0.000        0
     9  obs1_09         1   25    5   0.000   0.000        0
    10  obs1_10         1   27   26   0.000   0.000        0
    11  obs1_11         1   38   17   0.000   0.000        0
    12  obs1_12         1   13   18   0.000   0.000        0
    13  obs2_01         2    5    5   0.000   0.000        0
    14  obs2_02         2    5   31   0.000   0.000        0
    15  obs2_03         2   16    8   0.000   0.000        0
    16  obs2_04         2   17   26   0.000   0.000        0
    17  obs2_05         2   35    5   0.000   0.000        0
    18  obs2_06         2   37   31   0.000   0.000        0
    19  obs2_07         2   23   17   0.000   0.000        0
    20  obs2_08         2    6   20   0.000   0.000        0
    21  obs2_09         2   25    5   0.000   0.000        0
    22  obs2_10         2   27   26   0.000   0.000        0
    23  obs2_11         2   38   17   0.000   0.000        0
    24  obs2_12         2   13   18   0.000   0.000        0
    25  obs3_01         3    5    5   0.000   0.000        0
    26  obs3_02         3    5   31   0.000   0.000        0
    27  obs3_03         3   16    8   0.000   0.000        0
    28  obs3_04         3   17   26   0.000   0.000        0
    29  obs3_05         3   35    5   0.000   0.000        0
    30  obs3_06         3   37   31   0.000   0.000        0
    31  obs3_07         3   23   17   0.000   0.000        0
    32  obs3_08         3    6   20   0.000   0.000        0
    33  obs3_09         3   25    5   0.000   0.000        0
    34  obs3_10         3   27   26   0.000   0.000        0
    35  obs3_11         3   38   17   0.000   0.000        0
    36  obs3_12         3   13   18   0.000   0.000        0

 ADJ -- ADJOINT STATE SENSITIVITY PACKAGE, VERSION -- PRE-RELEASE
        INPUT READ FROM UNIT   35
 # Modflow 2005 ADJ File Input Adjoint MD
 USING OBSERVATION BASED ADJOINT STATE MODE
SENSITIVITY OUTPUT FILE CONTROL INFORMATION -   44  12   0   0
 Adjoint state solver information  read from unit 75
 PCG -- CONJUGATE-GRADIENT SOLUTION PACKAGE, VERSION 7, 5/2/2005
 MAXIMUM OF   1000 CALLS OF SOLUTION ROUTINE
 MAXIMUM OF     40 INTERNAL ITERATIONS PER CALL TO SOLUTION ROUTINE
 MATRIX PRECONDITIONING TYPE :    1



                                    SOLUTION BY THE CONJUGATE-GRADIENT METHOD
                                   -------------------------------------------
                    MAXIMUM NUMBER OF CALLS TO PCG ROUTINE =     1000
                        MAXIMUM ITERATIONS PER CALL TO PCG =       40
                               MATRIX PRECONDITIONING TYPE =        1
        RELAXATION FACTOR (ONLY USED WITH PRECOND. TYPE 1) =    0.10000E+01
 PARAMETER OF POLYNOMIAL PRECOND. = 2 (2) OR IS CALCULATED :        2
                         HEAD CHANGE CRITERION FOR CLOSURE =    0.10000E-04
                     RESIDUAL CHANGE CRITERION FOR CLOSURE =    0.10000E-04
            PCG HEAD AND RESIDUAL CHANGE PRINTOUT INTERVAL =        5
     PRINTING FROM SOLVER IS LIMITED(1) OR SUPPRESSED (>1) =        0
                                         DAMPING PARAMETER =    0.10000E+01

 NUMBER OF PARAMETERS READ FROM ADJ FILE:    1
 NUMBER OF DISTRIBUTED PARAMETERS 4200
DISTRIBUTED PARAMETER SENSITIVITIES WRITTEN TO UNIT  48 USING OUTPUT FORMAT   1
RELATIVE SENSITIVITY CUTOFF =   0.000    
DISTRIBUTED PARAMETERS ARE PARAMETERS:
   1   1   1   1   1   1   1   1   1   1
DISTRIBUTED PARAMETERS ARE PARAMETERS:
   1   1   1   1   1   1   1   1   1   1
DISTRIBUTED PARAMETERS ARE PARAMETERS:
   1   1   1   1   1   1   1   1   1   1
DISTRIBUTED PARAMETERS ARE PARAMETERS:
   1   1   1   1   1   1   1   1   1   1
DISTRIBUTED PARAMETERS ARE PARAMETERS:
   1   1   1   1   1   1   1   1   1   1
DISTRIBUTED PARAMETERS ARE PARAMETERS:
   1   1   1   1   1   1   1   1   1   1
DISTRIBUTED PARAMETERS ARE PARAMETERS:
   1   1   1   1   1   1   1   1   1   1
DISTRIBUTED PARAMETERS ARE PARAMETERS:
   1   1   1   1   1   1   1   1   1   1
DISTRIBUTED PARAMETERS ARE PARAMETERS:
   1   1   1   1   1   1   1   1   1   1
DISTRIBUTED PARAMETERS ARE PARAMETERS:
   1   1   1   1   1   1   1   1   1   1
DISTRIBUTED PARAMETERS ARE PARAMETERS:
   1   1   1   1   1   1   1   1   1   1
DISTRIBUTED PARAMETERS ARE PARAMETERS:
   1   1   1   1   1   1   1   1   1   1
DISTRIBUTED PARAMETERS ARE PARAMETERS:
   1   1   1   1   1   1   1   1   1   1
DISTRIBUTED PARAMETERS ARE PARAMETERS:
   1   1   1   1   1   1   1   1   1   1
DISTRIBUTED PARAMETERS ARE PARAMETERS:
   1   1   1   1   1   1   1   1   1   1
DISTRIBUTED PARAMETERS ARE PARAMETERS:
   1   1   1   1   1   1   1   1   1   1
DISTRIBUTED PARAMETERS ARE PARAMETERS:
   1   1   1   1   1   1   1   1   1   1
DISTRIBUTED PARAMETERS ARE PARAMETERS:
   1   1   1   1   1   1   1   1   1   1
DISTRIBUTED PARAMETERS ARE PARAMETERS:
   1   1   1   1   1   1   1   1   1   1
DISTRIBUTED PARAMETERS ARE PARAMETERS:
   1   1   1   1   1   1   1   1   1   1
DISTRIBUTED PARAMETERS ARE PARAMETERS:
   1   1   1   1   1   1   1   1   1   1
DISTRIBUTED PARAMETERS ARE PARAMETERS:
   1   1   1   1   1   1   1   1   1   1
DISTRIBUTED PARAMETERS ARE PARAMETERS:
   1   1   1   1   1   1   1   1   1   1
DISTRIBUTED PARAMETERS ARE PARAMETERS:
   1   1   1   1   1   1   1   1   1   1
DISTRIBUTED PARAMETERS ARE PARAMETERS:
   1   1   1   1   1   1   1   1   1   1
DISTRIBUTED PARAMETERS ARE PARAMETERS:
   1   1   1   1   1   1   1   1   1   1
DISTRIBUTED PARAMETERS ARE PARAMETERS:
   1   1   1   1   1   1   1   1   1   1
DISTRIBUTED PARAMETERS ARE PARAMETERS:
   1   1   1   1   1   1   1   1   1   1
DISTRIBUTED PARAMETERS ARE PARAMETERS:
   1   1   1   1   1   1   1   1   1   1
DISTRIBUTED PARAMETERS ARE PARAMETERS:
   1   1   1   1   1   1   1   1   1   1
DISTRIBUTED PARAMETERS ARE PARAMETERS:
   1   1   1   1   1   1   1   1   1   1
DISTRIBUTED PARAMETERS ARE PARAMETERS:
   1   1   1   1   1   1   1   1   1   1
DISTRIBUTED PARAMETERS ARE PARAMETERS:
   1   1   1   1   1   1   1   1   1   1
DISTRIBUTED PARAMETERS ARE PARAMETERS:
   1   1   1   1   1   1   1   1   1   1
DISTRIBUTED PARAMETERS ARE PARAMETERS:
   1   1   1   1   1   1   1   1   1   1
DISTRIBUTED PARAMETERS ARE PARAMETERS:
   1   1   1   1   1   1   1   1   1   1
DISTRIBUTED PARAMETERS ARE PARAMETERS:
   1   1   1   1   1   1   1   1   1   1
DISTRIBUTED PARAMETERS ARE PARAMETERS:
   1   1   1   1   1   1   1   1   1   1
DISTRIBUTED PARAMETERS ARE PARAMETERS:
   1   1   1   1   1   1   1   1   1   1
DISTRIBUTED PARAMETERS ARE PARAMETERS:
   1   1   1   1   1   1   1   1   1   1
DISTRIBUTED PARAMETERS ARE PARAMETERS:
   1   1   1   1   1   1   1   1   1   1
DISTRIBUTED PARAMETERS ARE PARAMETERS:
   1   1   1   1   1   1   1   1   1   1
DISTRIBUTED PARAMETERS ARE PARAMETERS:
   1   1   1   1   1   1   1   1   1   1
DISTRIBUTED PARAMETERS ARE PARAMETERS:
   1   1   1   1   1   1   1   1   1   1
DISTRIBUTED PARAMETERS ARE PARAMETERS:
   1   1   1   1   1   1   1   1   1   1
DISTRIBUTED PARAMETERS ARE PARAMETERS:
   1   1   1   1   1   1   1   1   1   1
DISTRIBUTED PARAMETERS ARE PARAMETERS:
   1   1   1   1   1   1   1   1   1   1
DISTRIBUTED PARAMETERS ARE PARAMETERS:
   1   1   1   1   1   1   1   1   1   1
DISTRIBUTED PARAMETERS ARE PARAMETERS:
   1   1   1   1   1   1   1   1   1   1
DISTRIBUTED PARAMETERS ARE PARAMETERS:
   1   1   1   1   1   1   1   1   1   1
DISTRIBUTED PARAMETERS ARE PARAMETERS:
   1   1   1   1   1   1   1   1   1   1
DISTRIBUTED PARAMETERS ARE PARAMETERS:
   1   1   1   1   1   1   1   1   1   1
DISTRIBUTED PARAMETERS ARE PARAMETERS:
   1   1   1   1   1   1   1   1   1   1
DISTRIBUTED PARAMETERS ARE PARAMETERS:
   1   1   1   1   1   1   1   1   1   1
DISTRIBUTED PARAMETERS ARE PARAMETERS:
   1   1   1   1   1   1   1   1   1   1
DISTRIBUTED PARAMETERS ARE PARAMETERS:
   1   1   1   1   1   1   1   1   1   1
DISTRIBUTED PARAMETERS ARE PARAMETERS:
   1   1   1   1   1   1   1   1   1   1
DISTRIBUTED PARAMETERS ARE PARAMETERS:
   1   1   1   1   1   1   1   1   1   1
DISTRIBUTED PARAMETERS ARE PARAMETERS:
   1   1   1   1   1   1   1   1   1   1
DISTRIBUTED PARAMETERS ARE PARAMETERS:
   1   1   1   1   1   1   1   1   1   1
DISTRIBUTED PARAMETERS ARE PARAMETERS:
   1   1   1   1   1   1   1   1   1   1
DISTRIBUTED PARAMETERS ARE PARAMETERS:
   1   1   1   1   1   1   1   1   1   1
DISTRIBUTED PARAMETERS ARE PARAMETERS:
   1   1   1   1   1   1   1   1   1   1
DISTRIBUTED PARAMETERS ARE PARAMETERS:
   1   1   1   1   1   1   1   1   1   1
DISTRIBUTED PARAMETERS ARE PARAMETERS:
   1   1   1   1   1   1   1   1   1   1
DISTRIBUTED PARAMETERS ARE PARAMETERS:
   1   1   1   1   1   1   1   1   1   1
DISTRIBUTED PARAMETERS ARE PARAMETERS:
   1   1   1   1   1   1   1   1   1   1
DISTRIBUTED PARAMETERS ARE PARAMETERS:
   1   1   1   1   1   1   1   1   1   1
DISTRIBUTED PARAMETERS ARE PARAMETERS:
   1   1   1   1   1   1   1   1   1   1
DISTRIBUTED PARAMETERS ARE PARAMETERS:
   1   1   1   1   1   1   1   1   1   1
DISTRIBUTED PARAMETERS ARE PARAMETERS:
   1   1   1   1   1   1   1   1   1   1
DISTRIBUTED PARAMETERS ARE PARAMETERS:
   1   1   1   1   1   1   1   1   1   1
DISTRIBUTED PARAMETERS ARE PARAMETERS:
   1   1   1   1   1   1   1   1   1   1
DISTRIBUTED PARAMETERS ARE PARAMETERS:
   1   1   1   1   1   1   1   1   1   1
DISTRIBUTED PARAMETERS ARE PARAMETERS:
   1   1   1   1   1   1   1   1   1   1
DISTRIBUTED PARAMETERS ARE PARAMETERS:
   1   1   1   1   1   1   1   1   1   1
DISTRIBUTED PARAMETERS ARE PARAMETERS:
   1   1   1   1   1   1   1   1   1   1
DISTRIBUTED PARAMETERS ARE PARAMETERS:
   1   1   1   1   1   1   1   1   1   1
DISTRIBUTED PARAMETERS ARE PARAMETERS:
   1   1   1   1   1   1   1   1   1   1
DISTRIBUTED PARAMETERS ARE PARAMETERS:
   1   1   1   1   1   1   1   1   1   1
DISTRIBUTED PARAMETERS ARE PARAMETERS:
   1   1   1   1   1   1   1   1   1   1
DISTRIBUTED PARAMETERS ARE PARAMETERS:
   1   1   1   1   1   1   1   1   1   1
DISTRIBUTED PARAMETERS ARE PARAMETERS:
   1   1   1   1   1   1   1   1   1   1
DISTRIBUTED PARAMETERS ARE PARAMETERS:
   1   1   1   1   1   1   1   1   1   1
DISTRIBUTED PARAMETERS ARE PARAMETERS:
   1   1   1   1   1   1   1   1   1   1
DISTRIBUTED PARAMETERS ARE PARAMETERS:
   1   1   1   1   1   1   1   1   1   1
DISTRIBUTED PARAMETERS ARE PARAMETERS:
   1   1   1   1   1   1   1   1   1   1
DISTRIBUTED PARAMETERS ARE PARAMETERS:
   1   1   1   1   1   1   1   1   1   1
DISTRIBUTED PARAMETERS ARE PARAMETERS:
   1   1   1   1   1   1   1   1   1   1
DISTRIBUTED PARAMETERS ARE PARAMETERS:
   1   1   1   1   1   1   1   1   1   1
DISTRIBUTED PARAMETERS ARE PARAMETERS:
   1   1   1   1   1   1   1   1   1   1
DISTRIBUTED PARAMETERS ARE PARAMETERS:
   1   1   1   1   1   1   1   1   1   1
DISTRIBUTED PARAMETERS ARE PARAMETERS:
   1   1   1   1   1   1   1   1   1   1
DISTRIBUTED PARAMETERS ARE PARAMETERS:
   1   1   1   1   1   1   1   1   1   1
DISTRIBUTED PARAMETERS ARE PARAMETERS:
   1   1   1   1   1   1   1   1   1   1
DISTRIBUTED PARAMETERS ARE PARAMETERS:
   1   1   1   1   1   1   1   1   1   1
DISTRIBUTED PARAMETERS ARE PARAMETERS:
   1   1   1   1   1   1   1   1   1   1
DISTRIBUTED PARAMETERS ARE PARAMETERS:
[...]
   (  3, 21, 19)  (  3, 21, 19)  (  3, 26, 14)  (  3, 20, 20)  (  3, 20, 20)
  0 -0.8076E-05  0 -0.5115E-05  0 -0.2842E-05  0 -0.1404E-05  0 -0.9572E-06
   (  3, 20, 20)  (  3, 20, 20)  (  3, 20, 20)  (  3, 20, 20)  (  3, 26, 14)
  0 -0.6534E-06  0 -0.3960E-06  0 -0.2740E-06  0 -0.1673E-06  0 -0.1282E-06
   (  3, 19, 21)  (  3, 19, 21)  (  3, 19, 21)  (  3, 19, 21)  (  3, 19, 21)
  0 -0.7603E-07  0 -0.5199E-07  0 -0.3036E-07  1 -0.2628E-07
   (  3, 19, 21)  (  3, 19, 21)  (  3, 19, 21)  (  3, 19, 21)


 SUM OF POSITIVE RATES= 1.00000E+00    SUM OF NEGATIVE RATES= 1.00000E+00
               PERCENT DISCREPANCY=-4.67E-06
        SENSITIVITY CALCULATION FOR GLOBAL OBSERVATION 31 obs3_07     


     2 CALLS TO PCG ROUTINE FOR TIME STEP   1 IN STRESS PERIOD    1
    40 TOTAL ITERATIONS

 MAXIMUM HEAD CHANGE FOR EACH ITERATION (1 INDICATES THE FIRST INNER ITERATION):

    HEAD CHANGE    HEAD CHANGE    HEAD CHANGE    HEAD CHANGE    HEAD CHANGE 
   LAYER,ROW,COL  LAYER,ROW,COL  LAYER,ROW,COL  LAYER,ROW,COL  LAYER,ROW,COL
 ---------------------------------------------------------------------------
  1   182.4      0   103.0      0   61.48      0   32.89      0  -19.39    
   (  3,  6, 20)  (  3,  6, 20)  (  3,  6, 20)  (  3,  6, 20)  (  2, 27, 24)
  0  -10.64      0   6.987      0  -4.500      0   3.555      0  -2.018    
   (  3,  1, 12)  (  3, 10, 16)  (  3,  1, 13)  (  2, 38, 25)  (  2, 28, 20)
  0  0.8365      0  0.9353      0  0.5531      0 -0.4028      0  0.3996    
   (  2, 26, 24)  (  2,  7, 21)  (  3,  3, 22)  (  2, 15, 22)  (  2,  8, 19)
  0 -0.1754      0 -0.7154E-01  0  0.6583E-01  0 -0.4347E-01  0 -0.2885E-01
   (  3, 24, 16)  (  1, 16, 24)  (  2,  8, 19)  (  3,  1, 22)  (  3, 40, 26)
  0  0.2531E-01  0 -0.1409E-01  0  0.7215E-02  0  0.6448E-02  0 -0.3509E-02
   (  3, 28, 16)  (  3, 35, 19)  (  3, 31, 14)  (  2, 29, 17)  (  2, 20, 22)
  0  0.2811E-02  0 -0.1658E-02  0  0.9382E-03  0 -0.5112E-03  0  0.2353E-03
   (  2, 23, 21)  (  2, 10, 24)  (  2,  5, 22)  (  2,  7, 24)  (  2, 10, 27)
  0  0.1754E-03  0 -0.9735E-04  0  0.6568E-04  0 -0.4932E-04  0 -0.2221E-04
   (  3, 15, 16)  (  3, 28, 23)  (  3, 36, 26)  (  3, 12, 16)  (  2,  6, 23)
  0 -0.1753E-04  0 -0.1141E-04  0  0.1194E-04  0 -0.6739E-05  1  0.8020E-05
   (  2, 28, 25)  (  3, 25, 24)  (  3,  4, 14)  (  3,  9, 16)  (  3,  6, 20)

 MAXIMUM RESIDUAL FOR EACH ITERATION (1 INDICATES THE FIRST INNER ITERATION):

    RESIDUAL       RESIDUAL       RESIDUAL       RESIDUAL       RESIDUAL    
   LAYER,ROW,COL  LAYER,ROW,COL  LAYER,ROW,COL  LAYER,ROW,COL  LAYER,ROW,COL
 ---------------------------------------------------------------------------
  1 -0.7987      0 -0.5518      0 -0.3249      0 -0.1628      0 -0.8941E-01
   (  3,  6, 20)  (  3,  6, 20)  (  3,  6, 20)  (  3,  6, 20)  (  3,  6, 20)
  0 -0.6575E-01  0 -0.5225E-01  0 -0.3174E-01  0 -0.1916E-01  0 -0.1200E-01
   (  3,  5, 21)  (  3,  5, 21)  (  3,  5, 21)  (  3,  7, 19)  (  3,  7, 19)
  0 -0.7884E-02  0 -0.4113E-02  0 -0.2490E-02  0 -0.1750E-02  0 -0.1243E-02
   (  3,  7, 19)  (  3,  5, 21)  (  3,  8, 18)  (  3,  8, 18)  (  3,  8, 18)
  0 -0.8066E-03  0 -0.5674E-03  0 -0.3987E-03  0 -0.2371E-03  0 -0.1512E-03
   (  3,  8, 18)  (  3,  8, 18)  (  3,  8, 18)  (  3,  4, 22)  (  3,  4, 22)
  0 -0.8506E-04  0 -0.4041E-04  0 -0.2306E-04  0 -0.1439E-04  0 -0.1102E-04
   (  3,  4, 22)  (  3,  4, 22)  (  3,  9, 17)  (  3,  9, 17)  (  3,  3, 23)
  0 -0.8052E-05  0 -0.5373E-05  0 -0.2917E-05  0 -0.1499E-05  0 -0.7999E-06
   (  3,  3, 23)  (  3,  3, 23)  (  3,  3, 23)  (  3,  3, 23)  (  3,  2, 24)
  0 -0.5645E-06  0 -0.4139E-06  0 -0.2820E-06  0 -0.1833E-06  0 -0.1249E-06
   (  3,  2, 24)  (  3,  2, 24)  (  3,  2, 24)  (  3,  2, 24)  (  3,  2, 24)
  0 -0.8049E-07  0 -0.4808E-07  0  0.3235E-07  0  0.1817E-07  1 -0.2197E-07
   (  3,  2, 24)  (  3,  2, 24)  (  3,  1, 24)  (  3,  1, 24)  (  3,  6, 20)


 SUM OF POSITIVE RATES= 1.00000E+00    SUM OF NEGATIVE RATES= 1.00000E+00
               PERCENT DISCREPANCY= 7.75E-06
        SENSITIVITY CALCULATION FOR GLOBAL OBSERVATION 32 obs3_08     


     2 CALLS TO PCG ROUTINE FOR TIME STEP   1 IN STRESS PERIOD    1
    38 TOTAL ITERATIONS

 MAXIMUM HEAD CHANGE FOR EACH ITERATION (1 INDICATES THE FIRST INNER ITERATION):

    HEAD CHANGE    HEAD CHANGE    HEAD CHANGE    HEAD CHANGE    HEAD CHANGE 
   LAYER,ROW,COL  LAYER,ROW,COL  LAYER,ROW,COL  LAYER,ROW,COL  LAYER,ROW,COL
 ---------------------------------------------------------------------------
  1   262.3      0   53.87      0  -24.24      0  -14.91      0  -8.911    
   (  3, 25,  5)  (  3, 25,  5)  (  3, 40, 27)  (  3, 36, 20)  (  2, 25, 23)
  0   7.232      0   3.858      0   2.137      0  -1.518      0  -1.100    
   (  2, 15, 19)  (  3, 37, 18)  (  2, 38, 24)  (  2, 27, 19)  (  3,  1, 13)
  0  0.7731      0  0.3813      0 -0.3986      0  0.3692      0  0.1301    
   (  2, 13, 22)  (  3, 14, 22)  (  2, 15, 24)  (  2, 11, 23)  (  3,  5, 18)
  0 -0.1008      0  0.6736E-01  0  0.3119E-01  0  0.1766E-01  0 -0.1652E-01
   (  2, 39, 25)  (  2, 30, 19)  (  3,  5, 21)  (  1, 10, 20)  (  3,  4, 19)
  0  0.1059E-01  0 -0.7077E-02  0  0.3532E-02  0  0.3120E-02  0 -0.2097E-02
   (  2, 10, 26)  (  2, 10, 28)  (  3, 31, 17)  (  2,  6, 24)  (  2, 35, 16)
  0  0.8355E-03  0  0.4472E-03  0 -0.6239E-03  0  0.2876E-03  0  0.1042E-03
   (  2,  4, 27)  (  2, 16, 17)  (  2, 18, 20)  (  2, 24, 23)  (  2, 36, 21)
  0  0.1099E-03  0 -0.8811E-04  0 -0.4583E-04  0  0.2615E-04  0  0.1245E-04
   (  2,  6, 28)  (  2,  8, 30)  (  2, 10, 24)  (  2,  3, 22)  (  2, 21, 21)
  0  0.1035E-04  0 -0.6874E-05  1  0.4618E-05
   (  2, 32, 19)  (  2,  7, 29)  (  3, 19, 20)

 MAXIMUM RESIDUAL FOR EACH ITERATION (1 INDICATES THE FIRST INNER ITERATION):

    RESIDUAL       RESIDUAL       RESIDUAL       RESIDUAL       RESIDUAL    
   LAYER,ROW,COL  LAYER,ROW,COL  LAYER,ROW,COL  LAYER,ROW,COL  LAYER,ROW,COL
 ---------------------------------------------------------------------------
  1 -0.4150      0 -0.1972      0 -0.1141      0 -0.6311E-01  0 -0.4818E-01
   (  3, 25,  5)  (  3, 25,  5)  (  3, 25,  5)  (  3, 24,  6)  (  3, 24,  6)
  0 -0.3716E-01  0 -0.2482E-01  0 -0.1447E-01  0 -0.9445E-02  0 -0.5673E-02
   (  3, 24,  6)  (  3, 24,  6)  (  3, 26,  4)  (  3, 26,  4)  (  3, 26,  4)
  0 -0.3615E-02  0 -0.2020E-02  0 -0.1449E-02  0 -0.9341E-03  0 -0.7223E-03
   (  3, 26,  4)  (  3, 26,  4)  (  3, 23,  7)  (  3, 23,  7)  (  3, 27,  3)
  0 -0.5212E-03  0 -0.3711E-03  0 -0.2478E-03  0 -0.1755E-03  0 -0.1075E-03
   (  3, 27,  3)  (  3, 27,  3)  (  3, 27,  3)  (  3, 27,  3)  (  3, 27,  3)
  0 -0.5985E-04  0 -0.3407E-04  0 -0.1618E-04  0 -0.1017E-04  0 -0.6095E-05
   (  3, 27,  3)  (  3, 27,  3)  (  3, 27,  3)  (  3, 28,  2)  (  3, 28,  2)
  0 -0.3667E-05  0 -0.2339E-05  0 -0.1741E-05  0  0.1148E-05  0  0.7555E-06
   (  3, 28,  2)  (  3, 28,  2)  (  3, 28,  2)  (  3, 27,  2)  (  3, 27,  2)
  0  0.4404E-06  0  0.2439E-06  0  0.1443E-06  0  0.9265E-07  0  0.6401E-07
   (  3, 27,  2)  (  3, 27,  2)  (  3, 27,  2)  (  3, 27,  2)  (  3, 27,  2)
  0  0.3893E-07  0  0.2230E-07  1  0.2062E-07
   (  3, 29,  2)  (  3, 29,  2)  (  3, 29,  2)


 SUM OF POSITIVE RATES= 1.00000E+00    SUM OF NEGATIVE RATES= 1.00000E+00
               PERCENT DISCREPANCY= 2.37E-06
        SENSITIVITY CALCULATION FOR GLOBAL OBSERVATION 33 obs3_09     


     2 CALLS TO PCG ROUTINE FOR TIME STEP   1 IN STRESS PERIOD    1
    39 TOTAL ITERATIONS

 MAXIMUM HEAD CHANGE FOR EACH ITERATION (1 INDICATES THE FIRST INNER ITERATION):

    HEAD CHANGE    HEAD CHANGE    HEAD CHANGE    HEAD CHANGE    HEAD CHANGE 
   LAYER,ROW,COL  LAYER,ROW,COL  LAYER,ROW,COL  LAYER,ROW,COL  LAYER,ROW,COL
 ---------------------------------------------------------------------------
  1   113.4      0   108.8      0   53.82      0   18.98      0  -16.31    
   (  3, 27, 26)  (  3, 27, 26)  (  3, 27, 26)  (  3, 27, 26)  (  2, 18, 20)
  0   12.62      0  -7.577      0   4.643      0   1.668      0  -1.935    
   (  2, 26, 24)  (  3, 40, 27)  (  3, 32, 23)  (  3, 28, 25)  (  3, 40, 26)
  0   1.420      0 -0.9875      0 -0.6394      0  0.3925      0 -0.1787    
   (  2, 34, 22)  (  2, 27, 19)  (  2, 16, 24)  (  2, 10, 23)  (  2, 25, 19)
  0 -0.2366      0  0.1226      0  0.7303E-01  0 -0.6334E-01  0 -0.2632E-01
   (  2, 13, 23)  (  2, 14, 23)  (  3, 32, 21)  (  3, 38, 21)  (  2, 40, 22)
  0  0.1397E-01  0 -0.1246E-01  0 -0.6233E-02  0  0.4000E-02  0  0.2965E-02
   (  3, 40, 27)  (  3, 38, 22)  (  2, 31, 17)  (  2, 27, 15)  (  2, 22, 20)
  0 -0.2238E-02  0  0.1048E-02  0  0.8542E-03  0 -0.4950E-03  0 -0.2464E-03
   (  2, 25, 24)  (  2, 35, 20)  (  2,  9, 23)  (  2, 10, 25)  (  2, 18, 19)
  0  0.1854E-03  0  0.1148E-03  0 -0.9078E-04  0 -0.4525E-04  0 -0.2544E-04
   (  2, 15, 28)  (  3, 21, 19)  (  3, 29, 23)  (  3, 35, 15)  (  3, 16, 22)
  0 -0.1419E-04  0  0.1237E-04  0  0.6700E-05  1 -0.3610E-05
   (  2,  9, 25)  (  3, 39, 23)  (  3, 16, 22)  (  3, 35, 14)

 MAXIMUM RESIDUAL FOR EACH ITERATION (1 INDICATES THE FIRST INNER ITERATION):

    RESIDUAL       RESIDUAL       RESIDUAL       RESIDUAL       RESIDUAL    
   LAYER,ROW,COL  LAYER,ROW,COL  LAYER,ROW,COL  LAYER,ROW,COL  LAYER,ROW,COL
 ---------------------------------------------------------------------------
  1 -0.8505      0 -0.5282      0 -0.2809      0 -0.1708      0 -0.7810E-01
   (  3, 27, 26)  (  3, 27, 26)  (  3, 27, 26)  (  3, 27, 26)  (  3, 27, 26)
  0 -0.6583E-01  0 -0.4580E-01  0 -0.3067E-01  0 -0.2186E-01  0 -0.1251E-01
   (  3, 26, 27)  (  3, 28, 25)  (  3, 28, 25)  (  3, 28, 25)  (  3, 26, 27)
  0 -0.7240E-02  0 -0.4444E-02  0 -0.2481E-02  0 -0.1912E-02  0 -0.1322E-02
   (  3, 28, 25)  (  3, 28, 25)  (  3, 28, 25)  (  3, 29, 24)  (  3, 29, 24)
  0 -0.9351E-03  0 -0.5555E-03  0 -0.3633E-03  0 -0.2086E-03  0 -0.1192E-03
   (  3, 29, 24)  (  3, 25, 28)  (  3, 29, 24)  (  3, 29, 24)  (  3, 29, 24)
  0 -0.6942E-04  0 -0.3404E-04  0 -0.2303E-04  0 -0.1365E-04  0 -0.1069E-04
   (  3, 29, 24)  (  3, 29, 24)  (  3, 30, 23)  (  3, 24, 29)  (  3, 24, 29)
  0 -0.7691E-05  0 -0.4679E-05  0 -0.2666E-05  0 -0.1587E-05  0 -0.1002E-05
   (  3, 24, 29)  (  3, 30, 23)  (  3, 30, 23)  (  3, 30, 23)  (  3, 30, 23)
  0 -0.6627E-06  0 -0.5049E-06  0 -0.3639E-06  0 -0.2224E-06  0 -0.1083E-06
   (  3, 31, 22)  (  3, 31, 22)  (  3, 31, 22)  (  3, 31, 22)  (  3, 31, 22)
  0 -0.7430E-07  0 -0.4619E-07  0 -0.2730E-07  1 -0.2345E-07
   (  3, 23, 30)  (  3, 23, 30)  (  3, 23, 30)  (  3, 31, 22)


 SUM OF POSITIVE RATES= 1.00000E+00    SUM OF NEGATIVE RATES= 1.00000E+00
               PERCENT DISCREPANCY=-2.86E-06
        SENSITIVITY CALCULATION FOR GLOBAL OBSERVATION 34 obs3_10     


     2 CALLS TO PCG ROUTINE FOR TIME STEP   1 IN STRESS PERIOD    1
    40 TOTAL ITERATIONS

 MAXIMUM HEAD CHANGE FOR EACH ITERATION (1 INDICATES THE FIRST INNER ITERATION):

    HEAD CHANGE    HEAD CHANGE    HEAD CHANGE    HEAD CHANGE    HEAD CHANGE 
   LAYER,ROW,COL  LAYER,ROW,COL  LAYER,ROW,COL  LAYER,ROW,COL  LAYER,ROW,COL
 ---------------------------------------------------------------------------
  1   302.9      0   107.9      0   46.47      0   26.22      0  -16.60    
   (  3, 38, 17)  (  3, 38, 17)  (  3, 38, 17)  (  3, 38, 17)  (  2, 16, 19)
  0   9.187      0   7.811      0  -5.452      0   2.639      0  -1.705    
   (  2, 17, 22)  (  3, 40, 16)  (  3, 40, 27)  (  3, 37, 18)  (  2, 14, 23)
  0  -1.361      0  0.9725      0 -0.8602      0  0.5176      0 -0.2950    
   (  3, 40, 27)  (  2, 13, 23)  (  2, 13, 25)  (  2, 10, 24)  (  2,  3, 16)
  0 -0.2070      0 -0.1081      0 -0.6293E-01  0  0.3845E-01  0 -0.4111E-01
   (  2, 40, 24)  (  3, 32, 17)  (  2, 17, 23)  (  3, 26, 15)  (  3, 31, 20)
  0  0.2297E-01  0 -0.1340E-01  0  0.6652E-02  0  0.5974E-02  0 -0.3838E-02
   (  2,  6, 25)  (  2, 10, 28)  (  3,  3, 19)  (  2,  5, 25)  (  2,  8, 26)
  0  0.2154E-02  0 -0.1751E-02  0  0.6914E-03  0  0.4205E-03  0 -0.2947E-03
   (  2, 15, 18)  (  2, 26, 23)  (  2, 39, 26)  (  2, 15, 26)  (  2, 35, 16)
  0  0.1555E-03  0 -0.7071E-04  0 -0.5446E-04  0 -0.3934E-04  0  0.2943E-04
   (  2, 38, 18)  (  2, 16, 20)  (  2, 35, 17)  (  3, 27, 24)  (  3,  7, 13)
  0 -0.1700E-04  0  0.1248E-04  0 -0.1062E-04  0 -0.4933E-05  1  0.3946E-05
   (  3, 28, 24)  (  3, 35, 28)  (  3, 34, 20)  (  3, 13, 20)  (  3, 15, 22)

 MAXIMUM RESIDUAL FOR EACH ITERATION (1 INDICATES THE FIRST INNER ITERATION):

    RESIDUAL       RESIDUAL       RESIDUAL       RESIDUAL       RESIDUAL    
   LAYER,ROW,COL  LAYER,ROW,COL  LAYER,ROW,COL  LAYER,ROW,COL  LAYER,ROW,COL
 ---------------------------------------------------------------------------
  1 -0.6753      0 -0.4071      0 -0.2525      0 -0.1400      0 -0.7600E-01
   (  3, 38, 17)  (  3, 38, 17)  (  3, 38, 17)  (  3, 38, 17)  (  3, 37, 18)
  0 -0.6036E-01  0 -0.4250E-01  0 -0.2942E-01  0 -0.1782E-01  0 -0.1288E-01
   (  3, 37, 18)  (  3, 37, 18)  (  3, 37, 18)  (  3, 39, 16)  (  3, 39, 16)
  0 -0.7908E-02  0 -0.4912E-02  0  0.2758E-02  0  0.1679E-02  0 -0.1001E-02
   (  3, 39, 16)  (  3, 39, 16)  (  3, 40, 16)  (  3, 40, 16)  (  3, 40, 15)
  0 -0.7582E-03  0 -0.4661E-03  0 -0.3492E-03  0 -0.2259E-03  0 -0.1298E-03
   (  3, 40, 15)  (  3, 40, 15)  (  3, 40, 15)  (  3, 40, 15)  (  3, 40, 15)
  0 -0.7334E-04  0 -0.4649E-04  0 -0.2856E-04  0 -0.1372E-04  0 -0.7996E-05
   (  3, 36, 19)  (  3, 36, 19)  (  3, 36, 19)  (  3, 36, 19)  (  3, 35, 20)
  0 -0.6017E-05  0 -0.4828E-05  0 -0.3159E-05  0 -0.1809E-05  0 -0.9874E-06
   (  3, 35, 20)  (  3, 35, 20)  (  3, 35, 20)  (  3, 35, 20)  (  3, 35, 20)
  0 -0.5452E-06  0 -0.3702E-06  0 -0.2403E-06  0 -0.1683E-06  0 -0.1186E-06
   (  3, 35, 20)  (  3, 35, 20)  (  3, 40, 34)  (  3, 40, 34)  (  3, 34, 21)
  0 -0.8601E-07  0 -0.5475E-07  0 -0.3122E-07  0 -0.2041E-07  1 -0.1874E-07
   (  3, 34, 21)  (  3, 34, 21)  (  3, 34, 21)  (  3, 34, 21)  (  3, 34, 21)


 SUM OF POSITIVE RATES= 1.00000E+00    SUM OF NEGATIVE RATES= 1.00000E+00
               PERCENT DISCREPANCY=-1.05E-06
        SENSITIVITY CALCULATION FOR GLOBAL OBSERVATION 35 obs3_11     


     2 CALLS TO PCG ROUTINE FOR TIME STEP   1 IN STRESS PERIOD    1
    39 TOTAL ITERATIONS

 MAXIMUM HEAD CHANGE FOR EACH ITERATION (1 INDICATES THE FIRST INNER ITERATION):

    HEAD CHANGE    HEAD CHANGE    HEAD CHANGE    HEAD CHANGE    HEAD CHANGE 
   LAYER,ROW,COL  LAYER,ROW,COL  LAYER,ROW,COL  LAYER,ROW,COL  LAYER,ROW,COL
 ---------------------------------------------------------------------------
  1   127.1      0   114.3      0   58.05      0   23.35      0  -18.88    
   (  3, 13, 18)  (  3, 13, 18)  (  3, 13, 18)  (  2, 16, 19)  (  2, 26, 24)
  0   11.66      0  -7.999      0   4.588      0   1.819      0  -1.941    
   (  2, 15, 18)  (  3, 24, 19)  (  3,  9, 21)  (  1, 13, 18)  (  3, 12, 12)
  0   1.202      0 -0.9674      0 -0.5930      0  0.3770      0 -0.2424    
   (  2, 40, 25)  (  2, 28, 19)  (  2, 16, 24)  (  2, 31, 20)  (  2, 24, 18)
  0 -0.2644      0  0.1653      0 -0.7970E-01  0 -0.4905E-01  0  0.2008E-01
   (  2, 15, 24)  (  2, 10, 21)  (  2, 14, 23)  (  3, 26, 13)  (  3, 16, 29)
  0  0.1887E-01  0 -0.1001E-01  0 -0.7467E-02  0  0.4869E-02  0  0.3572E-02
   (  3, 33, 20)  (  3, 24, 14)  (  2, 33, 18)  (  2, 29, 16)  (  2, 23, 21)
  0 -0.2113E-02  0  0.1168E-02  0  0.9827E-03  0 -0.5790E-03  0 -0.3099E-03
   (  2, 26, 25)  (  2, 26, 16)  (  2,  9, 24)  (  2, 11, 26)  (  3, 28, 24)
  0  0.2038E-03  0  0.1050E-03  0 -0.7108E-04  0 -0.4758E-04  0 -0.2571E-04
   (  2,  7, 24)  (  3, 40, 29)  (  3,  2,  9)  (  3, 39, 20)  (  3, 21, 25)
  0  0.1873E-04  0 -0.1018E-04  0  0.8058E-05  1 -0.2780E-05
   (  3,  6, 16)  (  3,  9, 19)  (  3,  2, 21)  (  1, 16, 24)

 MAXIMUM RESIDUAL FOR EACH ITERATION (1 INDICATES THE FIRST INNER ITERATION):

    RESIDUAL       RESIDUAL       RESIDUAL       RESIDUAL       RESIDUAL    
   LAYER,ROW,COL  LAYER,ROW,COL  LAYER,ROW,COL  LAYER,ROW,COL  LAYER,ROW,COL
 ---------------------------------------------------------------------------
  1 -0.8604      0 -0.5532      0 -0.3014      0 -0.1806      0 -0.9567E-01
   (  3, 13, 18)  (  3, 13, 18)  (  3, 13, 18)  (  3, 13, 18)  (  3, 13, 18)
  0 -0.6767E-01  0 -0.4823E-01  0 -0.3185E-01  0 -0.2379E-01  0 -0.1247E-01
   (  3, 12, 19)  (  3, 12, 19)  (  3, 12, 19)  (  3, 12, 19)  (  3, 12, 19)
  0 -0.7307E-02  0 -0.4472E-02  0 -0.2542E-02  0 -0.1928E-02  0 -0.1309E-02
   (  3, 12, 19)  (  3, 12, 19)  (  3, 11, 20)  (  3, 11, 20)  (  3, 11, 20)
  0 -0.9033E-03  0 -0.5686E-03  0 -0.3451E-03  0 -0.2090E-03  0 -0.1244E-03
   (  3, 11, 20)  (  3, 11, 20)  (  3, 15, 16)  (  3, 11, 20)  (  3, 11, 20)
  0 -0.6502E-04  0 -0.3228E-04  0 -0.2240E-04  0 -0.1339E-04  0 -0.1072E-04
   (  3, 11, 20)  (  3, 10, 21)  (  3, 10, 21)  (  3, 10, 21)  (  3, 10, 21)
  0 -0.7211E-05  0 -0.4623E-05  0 -0.2476E-05  0 -0.1469E-05  0 -0.9478E-06
   (  3, 10, 21)  (  3, 10, 21)  (  3, 10, 21)  (  3, 10, 21)  (  3, 10, 21)
  0 -0.5988E-06  0 -0.4570E-06  0 -0.3425E-06  0 -0.2176E-06  0 -0.1225E-06
   (  3,  9, 22)  (  3,  9, 22)  (  3,  9, 22)  (  3,  9, 22)  (  3,  9, 22)
  0 -0.7505E-07  0 -0.4880E-07  0 -0.2658E-07  1 -0.2457E-07
   (  3,  9, 22)  (  3,  9, 22)  (  3, 17, 14)  (  3, 17, 14)


 SUM OF POSITIVE RATES= 1.00000E+00    SUM OF NEGATIVE RATES= 1.00000E+00
               PERCENT DISCREPANCY= 7.11E-06
        SENSITIVITY CALCULATION FOR GLOBAL OBSERVATION 36 obs3_12     

 HEAD AND DRAWDOWN OBSERVATIONS
 OBSERVATION      OBSERVED      SIMULATED
   NAME             VALUE         VALUE      DIFFERENCE
 -------------------------------------------------------
 obs1_01         0.00000       59.4746      -59.4746    
 obs1_02         0.00000       58.0244      -58.0244    
 obs1_03         0.00000       59.0088      -59.0088    
 obs1_04         0.00000       57.9671      -57.9671    
 obs1_05         0.00000       59.5722      -59.5722    
 obs1_06         0.00000       58.0780      -58.0780    
 obs1_07         0.00000       58.0629      -58.0629    
 obs1_08         0.00000       58.2537      -58.2537    
 obs1_09         0.00000       59.4487      -59.4487    
 obs1_10         0.00000       58.0594      -58.0594    
 obs1_11         0.00000       58.6522      -58.6522    
 obs1_12         0.00000       58.0426      -58.0426    
 obs2_01         0.00000       59.3769      -59.3769    
 obs2_02         0.00000       57.9007      -57.9007    
 obs2_03         0.00000       58.6784      -58.6784    
 obs2_04         0.00000       57.5523      -57.5523    
 obs2_05         0.00000       59.4857      -59.4857    
 obs2_06         0.00000       57.9832      -57.9832    
 obs2_07         0.00000       56.6390      -56.6390    
 obs2_08         0.00000       57.6564      -57.6564    
 obs2_09         0.00000       59.3442      -59.3442    
 obs2_10         0.00000       57.7306      -57.7306    
 obs2_11         0.00000       58.2651      -58.2651    
 obs2_12         0.00000       56.6844      -56.6844    
 obs3_01         0.00000       59.2597      -59.2597    
 obs3_02         0.00000       57.7890      -57.7890    
 obs3_03         0.00000       58.4762      -58.4762    
 obs3_04         0.00000       57.3255      -57.3255    
 obs3_05         0.00000       59.3519      -59.3519    
 obs3_06         0.00000       57.8780      -57.8780    
 obs3_07         0.00000       56.6313      -56.6313    
 obs3_08         0.00000       57.3326      -57.3326    
 obs3_09         0.00000       59.2485      -59.2485    
 obs3_10         0.00000       57.5243      -57.5243    
 obs3_11         0.00000       57.9013      -57.9013    
 obs3_12         0.00000       56.5594      -56.5594    

 SUM OF SQUARED DIFFERENCE:    1.21970E+05

 Run end date and time (yyyy/mm/dd hh:mm:ss): 2011/12/30 13:49:39
 Elapsed run time:  1.735 Seconds

