                        MODFLOW-ADJOINT Version 0.96 07/14/2007
            SENSITIVITY CALCULATIONS USING THE ADJOINT STATE METHOD FOR
      U.S. GEOLOGICAL SURVEY MODULAR FINITE-DIFFERENCE GROUND-WATER FLOW MODEL
                             VERSION 1.1 05/18/2006

 LIST FILE: three_layers_adj.lst
                         UNIT    7

 OPENING three_layers.bas
 FILE TYPE:BAS6   UNIT    1   STATUS:OLD    
 FORMAT:FORMATTED              ACCESS:SEQUENTIAL          

 OPENING three_layers.dis
 FILE TYPE:DIS   UNIT   29   STATUS:OLD    
 FORMAT:FORMATTED              ACCESS:SEQUENTIAL          

 OPENING three_layers.lpf
 FILE TYPE:LPF   UNIT   11   STATUS:OLD    
 FORMAT:FORMATTED              ACCESS:SEQUENTIAL          

 OPENING three_layers.zon
 FILE TYPE:ZONE   UNIT   13   STATUS:OLD    
 FORMAT:FORMATTED              ACCESS:SEQUENTIAL          

 OPENING three_layers.wel
 FILE TYPE:WEL   UNIT   12   STATUS:OLD    
 FORMAT:FORMATTED              ACCESS:SEQUENTIAL          

 OPENING three_layers.oc
 FILE TYPE:OC   UNIT   22   STATUS:OLD    
 FORMAT:FORMATTED              ACCESS:SEQUENTIAL          

 OPENING three_layers.mlt
 FILE TYPE:MULT   UNIT    8   STATUS:OLD    
 FORMAT:FORMATTED              ACCESS:SEQUENTIAL          

 OPENING three_layers.pcg
 FILE TYPE:PCG   UNIT   19   STATUS:OLD    
 FORMAT:FORMATTED              ACCESS:SEQUENTIAL          

 OPENING three_layers.chd
 FILE TYPE:CHD   UNIT   40   STATUS:OLD    
 FORMAT:FORMATTED              ACCESS:SEQUENTIAL          

 OPENING three_layers.hob
 FILE TYPE:HOB   UNIT   18   STATUS:OLD    
 FORMAT:FORMATTED              ACCESS:SEQUENTIAL          

 OPENING three_layers.adj
 FILE TYPE:ADJ   UNIT   35   STATUS:OLD    
 FORMAT:FORMATTED              ACCESS:SEQUENTIAL          

 OPENING three_layers_adj.out
 FILE TYPE:DATA   UNIT   44   STATUS:UNKNOWN
 FORMAT:FORMATTED              ACCESS:SEQUENTIAL          

 OPENING three_layers_adj.pcg
 FILE TYPE:DATA   UNIT   75   STATUS:UNKNOWN
 FORMAT:FORMATTED              ACCESS:SEQUENTIAL          

 OPENING three_layers.hbs
 FILE TYPE:DATA   UNIT   14   STATUS:UNKNOWN
 FORMAT:FORMATTED              ACCESS:SEQUENTIAL          

 OPENING three_layers.sen
 FILE TYPE:DATA   UNIT   48   STATUS:UNKNOWN
 FORMAT:FORMATTED              ACCESS:SEQUENTIAL          

 OPENING three_layers.cbb
 FILE TYPE:DATA(BINARY)   UNIT   50   STATUS:UNKNOWN
 FORMAT:UNFORMATTED            ACCESS:SEQUENTIAL          

 OPENING three_layers.cbw
 FILE TYPE:DATA(BINARY)   UNIT   54   STATUS:UNKNOWN
 FORMAT:UNFORMATTED            ACCESS:SEQUENTIAL          

 OPENING three_layers.hds
 FILE TYPE:DATA(BINARY)   UNIT   30   STATUS:UNKNOWN
 FORMAT:UNFORMATTED            ACCESS:SEQUENTIAL          

 OPENING three_layers.ddn
 FILE TYPE:DATA(BINARY)   UNIT   31   STATUS:UNKNOWN
 FORMAT:UNFORMATTED            ACCESS:SEQUENTIAL          

 BAS -- BASIC PACKAGE, VERSION 7, 5/2/2005 INPUT READ FROM UNIT    1

 DISCRETIZATION INPUT DATA READ FROM UNIT   29
 # Discretization File
 # Upper left corner: (0, 0)
 # Lower left corner: (0, -60)
 # Upper right corner: (70, 0)
 # Lower right corner: (70, -60)
    3 LAYERS        40 ROWS        35 COLUMNS
    1 STRESS PERIOD(S) IN SIMULATION
 MODEL TIME UNIT IS SECONDS
 MODEL LENGTH UNIT IS METERS
  Confining bed flag for each layer:
   0   0   0

                     DELR =   2.00000    

                     DELC =   1.50000    

 TOP ELEVATION OF LAYER 1 =   40.0000    

   MODEL LAYER BOTTOM EL. =   32.0000     FOR LAYER   1

   MODEL LAYER BOTTOM EL. =   18.0000     FOR LAYER   2

   MODEL LAYER BOTTOM EL. =   0.00000     FOR LAYER   3


 STRESS PERIOD     LENGTH       TIME STEPS     MULTIPLIER FOR DELT    SS FLAG
 ----------------------------------------------------------------------------
        1         1.000000          1                    1.000         SS

 STEADY-STATE SIMULATION



 
 # Basic Package file created                                                    
 THE FREE FORMAT OPTION HAS BEEN SELECTED

           BOUNDARY ARRAY =              1 FOR LAYER   1

           BOUNDARY ARRAY =              1 FOR LAYER   2

           BOUNDARY ARRAY =              1 FOR LAYER   3

 AQUIFER HEAD WILL BE SET TO  999.00     AT ALL NO-FLOW NODES (IBOUND=0).

             INITIAL HEAD =   60.0000     FOR LAYER   1

             INITIAL HEAD =   60.0000     FOR LAYER   2

             INITIAL HEAD =   60.0000     FOR LAYER   3

 OUTPUT CONTROL IS SPECIFIED ONLY AT TIME STEPS FOR WHICH OUTPUT IS DESIRED
 HEAD PRINT FORMAT CODE IS   0    DRAWDOWN PRINT FORMAT CODE IS   0
 HEADS WILL BE SAVED ON UNIT   30    DRAWDOWNS WILL BE SAVED ON UNIT   31

 ZONE OPTION, INPUT READ FROM UNIT   13
 # Zone (ZONE) File
     3 ZONE ARRAYS

 MULTIPLIER OPTION, INPUT READ FROM UNIT    8
 # Multiplier (MULT)
   3 MULTIPLIER ARRAYS



            MULT. ARRAY: HK_Par1_M1
 READING ON UNIT    8 WITH FORMAT: (FREE)              

            1           2           3           4           5           6           7           8           9          10
           11          12          13          14          15          16          17          18          19          20
           21          22          23          24          25          26          27          28          29          30
           31          32          33          34          35
 ........................................................................................................................
   1   1.3084E-03  1.3480E-03  1.3879E-03  1.4273E-03  1.4661E-03  1.5045E-03  1.5426E-03  1.5790E-03  1.6111E-03  1.6359E-03
       1.6500E-03  1.6508E-03  1.6362E-03  1.6050E-03  1.5572E-03  1.4940E-03  1.4174E-03  1.3311E-03  1.2400E-03  1.1502E-03
       1.0683E-03  9.9903E-04  9.4374E-04  9.0152E-04  8.7046E-04  8.4858E-04  8.3416E-04  8.2580E-04  8.2226E-04  8.2225E-04
       8.2411E-04  8.2576E-04  8.2536E-04  8.2206E-04  8.1593E-04
   2   1.2823E-03  1.3226E-03  1.3635E-03  1.4038E-03  1.4437E-03  1.4839E-03  1.5248E-03  1.5650E-03  1.6014E-03  1.6304E-03
       1.6483E-03  1.6521E-03  1.6393E-03  1.6089E-03  1.5607E-03  1.4960E-03  1.4169E-03  1.3269E-03  1.2308E-03  1.1356E-03
       1.0493E-03  9.7772E-04  9.2224E-04  8.8104E-04  8.5152E-04  8.3131E-04  8.1851E-04  8.1171E-04  8.0973E-04  8.1146E-04
       8.1523E-04  8.1857E-04  8.1915E-04  8.1609E-04  8.0973E-04
   3   1.2511E-03  1.2912E-03  1.3323E-03  1.3731E-03  1.4134E-03  1.4548E-03  1.4984E-03  1.5421E-03  1.5824E-03  1.6152E-03
       1.6363E-03  1.6425E-03  1.6313E-03  1.6015E-03  1.5534E-03  1.4882E-03  1.4083E-03  1.3167E-03  1.2180E-03  1.1190E-03
       1.0294E-03  9.5711E-04  9.0276E-04  8.6346E-04  8.3592E-04  8.1745E-04  8.0609E-04  8.0043E-04  7.9944E-04  8.0222E-04
       8.0734E-04  8.1191E-04  8.1294E-04  8.0979E-04  8.0311E-04
   4   1.2151E-03  1.2539E-03  1.2944E-03  1.3352E-03  1.3756E-03  1.4178E-03  1.4638E-03  1.5107E-03  1.5544E-03  1.5903E-03
       1.6140E-03  1.6218E-03  1.6115E-03  1.5821E-03  1.5341E-03  1.4691E-03  1.3896E-03  1.2986E-03  1.1996E-03  1.0989E-03
       1.0077E-03  9.3682E-04  8.8534E-04  8.4893E-04  8.2380E-04  8.0717E-04  7.9711E-04  7.9229E-04  7.9178E-04  7.9492E-04
       8.0071E-04  8.0588E-04  8.0664E-04  8.0302E-04  7.9594E-04
   5   1.1747E-03  1.2112E-03  1.2502E-03  1.2906E-03  1.3309E-03  1.3740E-03  1.4223E-03  1.4720E-03  1.5185E-03  1.5568E-03
       1.5822E-03  1.5910E-03  1.5808E-03  1.5511E-03  1.5027E-03  1.4379E-03  1.3595E-03  1.2705E-03  1.1736E-03  1.0736E-03
       9.8322E-04  9.1681E-04  8.7005E-04  8.3742E-04  8.1505E-04  8.0033E-04  7.9147E-04  7.8728E-04  7.8694E-04  7.8988E-04
       7.9572E-04  8.0025E-04  7.9994E-04  7.9560E-04  7.8811E-04
   6   1.1308E-03  1.1641E-03  1.2008E-03  1.2399E-03  1.2809E-03  1.3258E-03  1.3758E-03  1.4276E-03  1.4763E-03  1.5164E-03
       1.5428E-03  1.5517E-03  1.5408E-03  1.5099E-03  1.4606E-03  1.3955E-03  1.3181E-03  1.2313E-03  1.1381E-03  1.0403E-03
       9.5650E-04  8.9810E-04  8.5726E-04  8.2884E-04  8.0936E-04  7.9650E-04  7.8870E-04  7.8496E-04  7.8461E-04  7.8714E-04
       7.9154E-04  7.9398E-04  7.9250E-04  7.8742E-04  7.7960E-04
   7   1.0844E-03  1.1140E-03  1.1478E-03  1.1855E-03  1.2271E-03  1.2738E-03  1.3256E-03  1.3793E-03  1.4298E-03  1.4712E-03
       1.4981E-03  1.5064E-03  1.4940E-03  1.4613E-03  1.4103E-03  1.3445E-03  1.2676E-03  1.1831E-03  1.0936E-03  1.0044E-03
       9.3305E-04  8.8241E-04  8.4729E-04  8.2294E-04  8.0619E-04  7.9499E-04  7.8801E-04  7.8440E-04  7.8357E-04  7.8488E-04
       7.8696E-04  7.8721E-04  7.8436E-04  7.7854E-04  7.7045E-04
   8   1.0369E-03  1.0623E-03  1.0931E-03  1.1293E-03  1.1712E-03  1.2193E-03  1.2729E-03  1.3286E-03  1.3809E-03  1.4235E-03
       1.4506E-03  1.4578E-03  1.4436E-03  1.4086E-03  1.3557E-03  1.2890E-03  1.2132E-03  1.1323E-03  1.0503E-03  9.7355E-04
       9.1310E-04  8.6987E-04  8.3990E-04  8.1916E-04  8.0481E-04  7.9497E-04  7.8847E-04  7.8458E-04  7.8274E-04  7.8225E-04
       7.8188E-04  7.7996E-04  7.7568E-04  7.6910E-04  7.6076E-04
   9   9.8933E-04  1.0107E-03  1.0383E-03  1.0728E-03  1.1147E-03  1.1640E-03  1.2195E-03  1.2774E-03  1.3318E-03  1.3757E-03
       1.4028E-03  1.4089E-03  1.3926E-03  1.3553E-03  1.3005E-03  1.2335E-03  1.1597E-03  1.0843E-03  1.0117E-03  9.4715E-04
       8.9640E-04  8.5979E-04  8.3431E-04  8.1668E-04  8.0432E-04  7.9551E-04  7.8915E-04  7.8461E-04  7.8140E-04  7.7890E-04
       7.7618E-04  7.7224E-04  7.6657E-04  7.5923E-04  7.5065E-04
  10   9.4285E-04  9.6021E-04  9.8483E-04  1.0176E-03  1.0591E-03  1.1093E-03  1.1667E-03  1.2272E-03  1.2841E-03  1.3297E-03
       1.3571E-03  1.3621E-03  1.3438E-03  1.3045E-03  1.2485E-03  1.1818E-03  1.1108E-03  1.0417E-03  9.7886E-04  9.2475E-04
       8.8217E-04  8.5116E-04  8.2951E-04  8.1449E-04  8.0380E-04  7.9574E-04  7.8928E-04  7.8386E-04  7.7911E-04  7.7461E-04
       7.6976E-04  7.6400E-04  7.5706E-04  7.4902E-04  7.4019E-04
  11   8.9836E-04  9.1202E-04  9.3377E-04  9.6478E-04  1.0057E-03  1.0566E-03  1.1160E-03  1.1795E-03  1.2396E-03  1.2872E-03
       1.3150E-03  1.3192E-03  1.2994E-03  1.2587E-03  1.2023E-03  1.1367E-03  1.0691E-03  1.0061E-03  9.5186E-04  9.0590E-04
       8.6958E-04  8.4299E-04  8.2444E-04  8.1162E-04  8.0234E-04  7.9490E-04  7.8822E-04  7.8184E-04  7.7558E-04  7.6924E-04
       7.6254E-04  7.5522E-04  7.4717E-04  7.3850E-04  7.2944E-04
  12   8.5662E-04  8.6694E-04  8.8610E-04  9.1539E-04  9.5564E-04  1.0071E-03  1.0685E-03  1.1355E-03  1.1993E-03  1.2493E-03
       1.2778E-03  1.2813E-03  1.2606E-03  1.2194E-03  1.1634E-03  1.1000E-03  1.0363E-03  9.7847E-04  9.3088E-04  8.9005E-04
       8.5783E-04  8.3439E-04  8.1822E-04  8.0722E-04  7.9922E-04  7.9239E-04  7.8553E-04  7.7827E-04  7.7065E-04  7.6272E-04
       7.5447E-04  7.4585E-04  7.3688E-04  7.2768E-04  7.1842E-04
  13   8.1821E-04  8.2565E-04  8.4257E-04  8.7035E-04  9.0988E-04  9.6165E-04  1.0251E-03  1.0960E-03  1.1641E-03  1.2166E-03
       1.2455E-03  1.2486E-03  1.2275E-03  1.1867E-03  1.1324E-03  1.0720E-03  1.0129E-03  9.6077E-04  9.1513E-04  8.7617E-04
       8.4614E-04  8.2470E-04  8.1023E-04  8.0070E-04  7.9392E-04  7.8783E-04  7.8095E-04  7.7300E-04  7.6425E-04  7.5502E-04
       7.4552E-04  7.3586E-04  7.2615E-04  7.1652E-04  7.0712E-04
  14   7.8355E-04  7.8861E-04  8.0377E-04  8.3040E-04  8.6934E-04  9.2126E-04  9.8639E-04  1.0615E-03  1.1341E-03  1.1886E-03
       1.2175E-03  1.2202E-03  1.1994E-03  1.1598E-03  1.1080E-03  1.0512E-03  9.9648E-04  9.4765E-04  9.0120E-04  8.6284E-04
       8.3397E-04  8.1371E-04  8.0034E-04  7.9189E-04  7.8624E-04  7.8108E-04  7.7441E-04  7.6599E-04  7.5637E-04  7.4613E-04
       7.3566E-04  7.2521E-04  7.1495E-04  7.0503E-04  6.9554E-04
  15   7.5289E-04  7.5613E-04  7.7009E-04  7.9611E-04  8.3485E-04  8.8688E-04  9.5305E-04  1.0321E-03  1.1089E-03  1.1639E-03
       1.1922E-03  1.1946E-03  1.1746E-03  1.1371E-03  1.0883E-03  1.0346E-03  9.8169E-04  9.3264E-04  8.8693E-04  8.4939E-04
       8.2135E-04  8.0179E-04  7.8898E-04  7.8111E-04  7.7633E-04  7.7226E-04  7.6601E-04  7.5734E-04  7.4710E-04  7.3610E-04
       7.2492E-04  7.1390E-04  7.0326E-04  6.9315E-04  6.8367E-04
  16   7.2635E-04  7.2830E-04  7.4167E-04  7.6778E-04  8.0706E-04  8.5968E-04  9.2608E-04  1.0078E-03  1.0863E-03  1.1400E-03
       1.1674E-03  1.1698E-03  1.1511E-03  1.1164E-03  1.0711E-03  1.0200E-03  9.6731E-04  9.1748E-04  8.7267E-04  8.3626E-04
       8.0899E-04  7.8980E-04  7.7710E-04  7.6927E-04  7.6478E-04  7.6169E-04  7.5599E-04  7.4722E-04  7.3653E-04  7.2500E-04
       7.1332E-04  7.0192E-04  6.9107E-04  6.8090E-04  6.7149E-04
  17   7.0393E-04  7.0504E-04  7.1841E-04  7.4535E-04  7.8607E-04  8.4034E-04  9.0808E-04  9.8730E-04  1.0621E-03  1.1148E-03
       1.1416E-03  1.1442E-03  1.1271E-03  1.0955E-03  1.0544E-03  1.0069E-03  9.5429E-04  9.0394E-04  8.5992E-04  8.2452E-04
       7.9783E-04  7.7880E-04  7.6593E-04  7.5771E-04  7.5273E-04  7.4980E-04  7.4472E-04  7.3581E-04  7.2481E-04  7.1291E-04
       7.0091E-04  6.8930E-04  6.7837E-04  6.6825E-04  6.5903E-04
  18   6.8554E-04  6.8616E-04  6.9998E-04  7.2835E-04  7.7119E-04  8.2749E-04  8.9550E-04  9.7046E-04  1.0397E-03  1.0894E-03
       1.1147E-03  1.1171E-03  1.1012E-03  1.0725E-03  1.0360E-03  9.9408E-04  9.4492E-04  8.9342E-04  8.4977E-04  8.1481E-04
       7.8836E-04  7.6931E-04  7.5622E-04  7.4760E-04  7.4209E-04  7.3804E-04  7.3239E-04  7.2334E-04  7.1209E-04  6.9994E-04
       6.8776E-04  6.7607E-04  6.6518E-04  6.5524E-04  6.4628E-04
  19   6.7106E-04  6.7139E-04  6.8594E-04  7.1615E-04  7.6151E-04  8.1982E-04  8.8733E-04  9.5769E-04  1.0205E-03  1.0654E-03
       1.0877E-03  1.0887E-03  1.0729E-03  1.0461E-03  1.0135E-03  9.7711E-04  9.3494E-04  8.8540E-04  8.4147E-04  8.0643E-04
       7.8000E-04  7.6091E-04  7.4763E-04  7.3861E-04  7.3230E-04  7.2684E-04  7.1982E-04  7.1014E-04  6.9855E-04  6.8620E-04
       6.7393E-04  6.6228E-04  6.5156E-04  6.4188E-04  6.3329E-04
  20   6.6045E-04  6.6050E-04  6.7586E-04  7.0812E-04  7.5629E-04  8.1663E-04  8.8333E-04  9.4907E-04  1.0052E-03  1.0439E-03
       1.0617E-03  1.0599E-03  1.0428E-03  1.0164E-03  9.8592E-04  9.5398E-04  9.1775E-04  8.7354E-04  8.3150E-04  7.9718E-04
       7.7116E-04  7.5226E-04  7.3892E-04  7.2949E-04  7.2226E-04  7.1531E-04  7.0686E-04  6.9631E-04  6.8429E-04  6.7176E-04
       6.5949E-04  6.4800E-04  6.3754E-04  6.2824E-04  6.2009E-04
  21   6.5374E-04  6.5341E-04  6.6944E-04  7.0379E-04  7.5505E-04  8.1761E-04  8.8339E-04  9.4445E-04  9.9362E-04  1.0254E-03
       1.0376E-03  1.0317E-03  1.0120E-03  9.8426E-04  9.5403E-04  9.2461E-04  8.9375E-04  8.5531E-04  8.1702E-04  7.8482E-04
       7.5999E-04  7.4171E-04  7.2856E-04  7.1888E-04  7.1088E-04  7.0273E-04  6.9309E-04  6.8174E-04  6.6932E-04  6.5668E-04
       6.4452E-04  6.3329E-04  6.2321E-04  6.1437E-04  6.0676E-04
  22   6.5118E-04  6.5027E-04  6.6661E-04  7.0283E-04  7.5749E-04  8.2253E-04  8.8721E-04  9.4340E-04  9.8555E-04  1.0101E-03
       1.0162E-03  1.0055E-03  9.8230E-04  9.5198E-04  9.2000E-04  8.9052E-04  8.6364E-04  8.3060E-04  7.9715E-04  7.6819E-04
       7.4526E-04  7.2802E-04  7.1533E-04  7.0569E-04  6.9735E-04  6.8854E-04  6.7815E-04  6.6625E-04  6.5360E-04  6.4100E-04
       6.2909E-04  6.1824E-04  6.0864E-04  6.0036E-04  5.9336E-04
  23   6.5320E-04  6.5156E-04  6.6765E-04  7.0510E-04  7.6335E-04  8.3103E-04  8.9412E-04  9.4512E-04  9.8041E-04  9.9806E-04
       9.9805E-04  9.8256E-04  9.5558E-04  9.2212E-04  8.8726E-04  8.5511E-04  8.2821E-04  8.0128E-04  7.7297E-04  7.4759E-04
       7.2681E-04  7.1074E-04  6.9864E-04  6.8933E-04  6.8118E-04  6.7238E-04  6.6178E-04  6.4972E-04  6.3713E-04  6.2480E-04
       6.1330E-04  6.0296E-04  5.9395E-04  5.8630E-04  5.7998E-04
  24   6.6045E-04  6.5818E-04  6.7346E-04  7.1088E-04  7.7235E-04  8.4234E-04  9.0288E-04  9.4858E-04  9.7761E-04  9.8912E-04
       9.8376E-04  9.6391E-04  9.3345E-04  8.9710E-04  8.5959E-04  8.2496E-04  7.9546E-04  7.7131E-04  7.4706E-04  7.2459E-04
       7.0553E-04  6.9033E-04  6.7868E-04  6.6975E-04  6.6221E-04  6.5412E-04  6.4388E-04  6.3213E-04  6.1998E-04  6.0820E-04
       5.9730E-04  5.8760E-04  5.7924E-04  5.7230E-04  5.6670E-04
  25   6.7362E-04  6.7130E-04  6.8584E-04  7.2159E-04  7.8394E-04  8.5487E-04  9.1176E-04  9.5284E-04  9.7681E-04  9.8343E-04
       9.7376E-04  9.5036E-04  9.1704E-04  8.7830E-04  8.3868E-04  8.0206E-04  7.7096E-04  7.4563E-04  7.2249E-04  7.0134E-04
       6.8306E-04  6.6809E-04  6.5639E-04  6.4752E-04  6.4063E-04  6.3385E-04  6.2449E-04  6.1363E-04  6.0237E-04  5.9143E-04
       5.8130E-04  5.7232E-04  5.6469E-04  5.5848E-04  5.5365E-04
  26   6.9316E-04  6.9181E-04  7.0668E-04  7.4198E-04  7.9940E-04  8.6533E-04  9.1988E-04  9.5784E-04  9.7827E-04  9.8136E-04
       9.6854E-04  9.4248E-04  9.0694E-04  8.6628E-04  8.2485E-04  7.8636E-04  7.5318E-04  7.2551E-04  7.0136E-04  6.7991E-04
       6.6133E-04  6.4584E-04  6.3344E-04  6.2396E-04  6.1709E-04  6.1181E-04  6.0390E-04  5.9462E-04  5.8471E-04  5.7485E-04
       5.6559E-04  5.5736E-04  5.5045E-04  5.4498E-04  5.4093E-04
  27   7.1904E-04  7.1960E-04  7.3533E-04  7.6935E-04  8.2091E-04  8.7947E-04  9.2990E-04  9.6502E-04  9.8287E-04  9.8357E-04
       9.6860E-04  9.4067E-04  9.0344E-04  8.6114E-04  8.1794E-04  7.7735E-04  7.4161E-04  7.1111E-04  6.8482E-04  6.6194E-04
       6.4222E-04  6.2561E-04  6.1201E-04  6.0128E-04  5.9331E-04  5.8810E-04  5.8304E-04  5.7595E-04  5.6765E-04  5.5893E-04
       5.5051E-04  5.4298E-04  5.3672E-04  5.3195E-04  5.2866E-04
  28   7.5083E-04  7.5392E-04  7.7057E-04  8.0266E-04  8.4829E-04  8.9925E-04  9.4430E-04  9.7611E-04  9.9173E-04  9.9075E-04
       9.7439E-04  9.4519E-04  9.0664E-04  8.6280E-04  8.1770E-04  7.7471E-04  7.3606E-04  7.0246E-04  6.7351E-04  6.4858E-04
       6.2725E-04  6.0923E-04  5.9432E-04  5.8237E-04  5.7336E-04  5.6730E-04  5.6404E-04  5.5895E-04  5.5206E-04  5.4427E-04
       5.3648E-04  5.2944E-04  5.2371E-04  5.1954E-04  5.1698E-04
  29   7.8778E-04  7.9385E-04  8.1136E-04  8.4124E-04  8.8122E-04  9.2500E-04  9.6421E-04  9.9230E-04  1.0057E-03  1.0035E-03
       9.8621E-04  9.5615E-04  9.1652E-04  8.7114E-04  8.2392E-04  7.7823E-04  7.3642E-04  6.9957E-04  6.6774E-04  6.4052E-04
       6.1741E-04  5.9800E-04  5.8197E-04  5.6914E-04  5.5955E-04  5.5330E-04  5.4963E-04  5.4510E-04  5.3884E-04  5.3144E-04
       5.2388E-04  5.1705E-04  5.1161E-04  5.0792E-04  5.0601E-04
  30   8.2904E-04  8.3839E-04  8.5682E-04  8.8446E-04  9.1916E-04  9.5629E-04  9.8974E-04  1.0140E-03  1.0253E-03  1.0219E-03
       1.0041E-03  9.7350E-04  9.3291E-04  8.8596E-04  8.3642E-04  7.8775E-04  7.4256E-04  7.0235E-04  6.6758E-04  6.3803E-04
       6.1318E-04  5.9251E-04  5.7558E-04  5.6214E-04  5.5209E-04  5.4523E-04  5.4042E-04  5.3525E-04  5.2865E-04  5.2095E-04
       5.1308E-04  5.0605E-04  5.0063E-04  4.9725E-04  4.9590E-04
  31   8.7358E-04  8.8652E-04  9.0602E-04  9.3158E-04  9.6134E-04  9.9231E-04  1.0203E-03  1.0409E-03  1.0502E-03  1.0460E-03
       1.0279E-03  9.9691E-04  9.5551E-04  9.0696E-04  8.5492E-04  8.0301E-04  7.5422E-04  7.1054E-04  6.7282E-04  6.4101E-04
       6.1454E-04  5.9275E-04  5.7507E-04  5.6106E-04  5.5039E-04  5.4250E-04  5.3616E-04  5.2958E-04  5.2182E-04  5.1310E-04
       5.0434E-04  4.9666E-04  4.9095E-04  4.8767E-04  4.8679E-04
  32   9.2020E-04  9.3701E-04  9.5785E-04  9.8159E-04  1.0067E-03  1.0319E-03  1.0550E-03  1.0723E-03  1.0798E-03  1.0750E-03
       1.0568E-03  1.0258E-03  9.8374E-04  9.3363E-04  8.7900E-04  8.2362E-04  7.7098E-04  7.2369E-04  6.8303E-04  6.4905E-04
       6.2110E-04  5.9832E-04  5.7992E-04  5.6527E-04  5.5374E-04  5.4453E-04  5.3639E-04  5.2794E-04  5.1843E-04  5.0806E-04
       4.9784E-04  4.8905E-04  4.8272E-04  4.7934E-04  4.7881E-04
  33   9.6751E-04  9.8834E-04  1.0109E-03  1.0332E-03  1.0539E-03  1.0738E-03  1.0926E-03  1.1071E-03  1.1132E-03  1.1080E-03
       1.0900E-03  1.0591E-03  1.0166E-03  9.6518E-04  9.0798E-04  8.4895E-04  7.9220E-04  7.4114E-04  6.9754E-04  6.6151E-04
       6.3220E-04  6.0850E-04  5.8938E-04  5.7396E-04  5.6137E-04  5.5063E-04  5.4056E-04  5.3000E-04  5.1834E-04  5.0585E-04
       4.9365E-04  4.8331E-04  4.7607E-04  4.7241E-04  4.7212E-04
  34   1.0139E-03  1.0387E-03  1.0631E-03  1.0847E-03  1.1014E-03  1.1163E-03  1.1317E-03  1.1439E-03  1.1489E-03  1.1435E-03
       1.1257E-03  1.0953E-03  1.0528E-03  1.0004E-03  9.4086E-04  8.7816E-04  8.1702E-04  7.6199E-04  7.1547E-04  6.7753E-04
       6.4699E-04  6.2243E-04  6.0255E-04  5.8622E-04  5.7243E-04  5.6006E-04  5.4801E-04  5.3525E-04  5.2129E-04  5.0638E-04
       4.9178E-04  4.7953E-04  4.7113E-04  4.6705E-04  4.6689E-04
  35   1.0578E-03  1.0859E-03  1.1121E-03  1.1337E-03  1.1474E-03  1.1582E-03  1.1710E-03  1.1812E-03  1.1851E-03  1.1794E-03
       1.1621E-03  1.1324E-03  1.0904E-03  1.0375E-03  9.7620E-04  9.1004E-04  8.4431E-04  7.8515E-04  7.3582E-04  6.9615E-04
       6.6452E-04  6.3912E-04  6.1841E-04  6.0108E-04  5.8597E-04  5.7193E-04  5.5791E-04  5.4303E-04  5.2681E-04  5.0943E-04
       4.9217E-04  4.7775E-04  4.6807E-04  4.6345E-04  4.6330E-04
  36   1.0975E-03  1.1281E-03  1.1554E-03  1.1764E-03  1.1895E-03  1.1989E-03  1.2089E-03  1.2170E-03  1.2196E-03  1.2136E-03
       1.1967E-03  1.1678E-03  1.1267E-03  1.0742E-03  1.0120E-03  9.4304E-04  8.7271E-04  8.0937E-04  7.5750E-04  7.1640E-04
       6.8378E-04  6.5754E-04  6.3591E-04  6.1747E-04  6.0095E-04  5.8524E-04  5.6932E-04  5.5245E-04  5.3420E-04  5.1462E-04
       4.9470E-04  4.7801E-04  4.6705E-04  4.6183E-04  4.6152E-04
  37   1.1320E-03  1.1640E-03  1.1915E-03  1.2122E-03  1.2256E-03  1.2347E-03  1.2429E-03  1.2489E-03  1.2501E-03  1.2435E-03
       1.2269E-03  1.1988E-03  1.1588E-03  1.1073E-03  1.0453E-03  9.7506E-04  9.0068E-04  8.3343E-04  7.7960E-04  7.3735E-04
       7.0381E-04  6.7664E-04  6.5398E-04  6.3430E-04  6.1632E-04  5.9892E-04  5.8120E-04  5.6249E-04  5.4248E-04  5.2124E-04
       4.9920E-04  4.8042E-04  4.6835E-04  4.6241E-04  4.6172E-04
  38   1.1604E-03  1.1927E-03  1.2201E-03  1.2405E-03  1.2542E-03  1.2634E-03  1.2703E-03  1.2746E-03  1.2743E-03  1.2668E-03
       1.2501E-03  1.2227E-03  1.1838E-03  1.1335E-03  1.0727E-03  1.0030E-03  9.2663E-04  8.5639E-04  8.0147E-04  7.5823E-04
       7.2369E-04  6.9545E-04  6.7158E-04  6.5054E-04  6.3104E-04  6.1200E-04  5.9259E-04  5.7220E-04  5.5059E-04  5.2787E-04
       5.0501E-04  4.8537E-04  4.7215E-04  4.6533E-04  4.6398E-04
  39   1.1825E-03  1.2141E-03  1.2406E-03  1.2607E-03  1.2744E-03  1.2836E-03  1.2895E-03  1.2923E-03  1.2903E-03  1.2817E-03
       1.2645E-03  1.2372E-03  1.1992E-03  1.1501E-03  1.0906E-03  1.0220E-03  9.4778E-04  8.7852E-04  8.2258E-04  7.7827E-04
       7.4259E-04  7.1309E-04  6.8785E-04  6.6533E-04  6.4428E-04  6.2368E-04  6.0276E-04  5.8099E-04  5.5821E-04  5.3471E-04
       5.1175E-04  4.9209E-04  4.7822E-04  4.7052E-04  4.6828E-04
  40   1.1983E-03  1.2281E-03  1.2533E-03  1.2726E-03  1.2862E-03  1.2950E-03  1.3001E-03  1.3013E-03  1.2977E-03  1.2875E-03
       1.2693E-03  1.2418E-03  1.2042E-03  1.1563E-03  1.0986E-03  1.0328E-03  9.6282E-04  8.9700E-04  8.4164E-04  7.9665E-04
       7.5981E-04  7.2891E-04  7.0216E-04  6.7808E-04  6.5551E-04  6.3350E-04  6.1135E-04  5.8865E-04  5.6533E-04  5.4183E-04
       5.1944E-04  5.0031E-04  4.8627E-04  4.7783E-04  4.7447E-04



            MULT. ARRAY: HK_Par1_M2
 READING ON UNIT    8 WITH FORMAT: (FREE)              

            1           2           3           4           5           6           7           8           9          10
           11          12          13          14          15          16          17          18          19          20
           21          22          23          24          25          26          27          28          29          30
           31          32          33          34          35
 ........................................................................................................................
   1   4.3835E-05  4.3444E-05  4.3045E-05  4.2635E-05  4.2185E-05  4.1649E-05  4.0984E-05  4.0182E-05  3.9260E-05  3.8253E-05
       3.7197E-05  3.6130E-05  3.5086E-05  3.4099E-05  3.3203E-05  3.2431E-05  3.1820E-05  3.1412E-05  3.1250E-05  3.1364E-05
       3.1744E-05  3.2329E-05  3.3040E-05  3.3806E-05  3.4559E-05  3.5237E-05  3.5780E-05  3.6134E-05  3.6266E-05  3.6178E-05
       3.5927E-05  3.5627E-05  3.5383E-05  3.5254E-05  3.5246E-05
   2   4.4832E-05  4.4476E-05  4.4123E-05  4.3774E-05  4.3400E-05  4.2930E-05  4.2302E-05  4.1507E-05  4.0572E-05  3.9540E-05
       3.8454E-05  3.7353E-05  3.6274E-05  3.5251E-05  3.4313E-05  3.3492E-05  3.2826E-05  3.2359E-05  3.2149E-05  3.2256E-05
       3.2685E-05  3.3344E-05  3.4130E-05  3.4962E-05  3.5772E-05  3.6494E-05  3.7059E-05  3.7403E-05  3.7479E-05  3.7278E-05
       3.6869E-05  3.6414E-05  3.6055E-05  3.5857E-05  3.5816E-05
   3   4.5924E-05  4.5616E-05  4.5319E-05  4.5044E-05  4.4764E-05  4.4382E-05  4.3804E-05  4.3029E-05  4.2101E-05  4.1068E-05
       3.9981E-05  3.8882E-05  3.7807E-05  3.6787E-05  3.5847E-05  3.5011E-05  3.4310E-05  3.3783E-05  3.3502E-05  3.3568E-05
       3.4031E-05  3.4740E-05  3.5561E-05  3.6419E-05  3.7250E-05  3.7985E-05  3.8549E-05  3.8868E-05  3.8878E-05  3.8550E-05
       3.7952E-05  3.7315E-05  3.6832E-05  3.6557E-05  3.6469E-05
   4   4.7120E-05  4.6877E-05  4.6649E-05  4.6455E-05  4.6289E-05  4.6014E-05  4.5495E-05  4.4757E-05  4.3857E-05  4.2856E-05
       4.1807E-05  4.0755E-05  3.9737E-05  3.8778E-05  3.7897E-05  3.7107E-05  3.6422E-05  3.5867E-05  3.5504E-05  3.5473E-05
       3.5942E-05  3.6631E-05  3.7407E-05  3.8220E-05  3.9016E-05  3.9723E-05  4.0255E-05  4.0528E-05  4.0463E-05  4.0008E-05
       3.9193E-05  3.8348E-05  3.7733E-05  3.7369E-05  3.7218E-05
   5   4.8425E-05  4.8271E-05  4.8131E-05  4.8026E-05  4.7983E-05  4.7819E-05  4.7365E-05  4.6684E-05  4.5844E-05  4.4912E-05
       4.3947E-05  4.3000E-05  4.2105E-05  4.1286E-05  4.0553E-05  3.9903E-05  3.9330E-05  3.8834E-05  3.8443E-05  3.8251E-05
       3.8638E-05  3.9137E-05  3.9725E-05  4.0389E-05  4.1076E-05  4.1701E-05  4.2161E-05  4.2357E-05  4.2201E-05  4.1632E-05
       4.0614E-05  3.9540E-05  3.8786E-05  3.8311E-05  3.8070E-05
   6   4.9837E-05  4.9800E-05  4.9780E-05  4.9796E-05  4.9839E-05  4.9748E-05  4.9388E-05  4.8796E-05  4.8050E-05  4.7229E-05
       4.6401E-05  4.5623E-05  4.4933E-05  4.4351E-05  4.3878E-05  4.3497E-05  4.3177E-05  4.2889E-05  4.2628E-05  4.2428E-05
       4.2317E-05  4.2322E-05  4.2526E-05  4.2914E-05  4.3407E-05  4.3890E-05  4.4233E-05  4.4311E-05  4.4023E-05  4.3300E-05
       4.2167E-05  4.0943E-05  4.0008E-05  3.9386E-05  3.9025E-05
   7   5.1345E-05  5.1451E-05  5.1571E-05  5.1712E-05  5.1837E-05  5.1818E-05  5.1558E-05  5.1077E-05  5.0456E-05  4.9785E-05
       4.9148E-05  4.8608E-05  4.8210E-05  4.7973E-05  4.7891E-05  4.7925E-05  4.8005E-05  4.8052E-05  4.8001E-05  4.7745E-05
       4.6822E-05  4.6085E-05  4.5730E-05  4.5724E-05  4.5947E-05  4.6236E-05  4.6421E-05  4.6347E-05  4.5898E-05  4.5018E-05
       4.3777E-05  4.2452E-05  4.1356E-05  4.0572E-05  4.0069E-05
   8   5.2927E-05  5.3196E-05  5.3471E-05  5.3742E-05  5.3958E-05  5.4022E-05  5.3863E-05  5.3502E-05  5.3025E-05  5.2537E-05
       5.2139E-05  5.1905E-05  5.1884E-05  5.2097E-05  5.2526E-05  5.3102E-05  5.3684E-05  5.4062E-05  5.4002E-05  5.3249E-05
       5.1653E-05  5.0142E-05  4.9149E-05  4.8684E-05  4.8593E-05  4.8660E-05  4.8667E-05  4.8424E-05  4.7804E-05  4.6773E-05
       4.5427E-05  4.4008E-05  4.2774E-05  4.1832E-05  4.1176E-05
   9   5.4557E-05  5.5003E-05  5.5444E-05  5.5854E-05  5.6178E-05  5.6334E-05  5.6274E-05  5.6031E-05  5.5703E-05  5.5418E-05
       5.5295E-05  5.5419E-05  5.5844E-05  5.6585E-05  5.7609E-05  5.8801E-05  5.9909E-05  6.0513E-05  6.0170E-05  5.8705E-05
       5.6385E-05  5.4141E-05  5.2524E-05  5.1604E-05  5.1205E-05  5.1063E-05  5.0902E-05  5.0498E-05  4.9717E-05  4.8543E-05
       4.7090E-05  4.5575E-05  4.4215E-05  4.3124E-05  4.2313E-05
  10   5.6200E-05  5.6834E-05  5.7450E-05  5.8012E-05  5.8457E-05  5.8714E-05  5.8748E-05  5.8607E-05  5.8415E-05  5.8335E-05
       5.8504E-05  5.9019E-05  5.9923E-05  6.1218E-05  6.2841E-05  6.4621E-05  6.6191E-05  6.6883E-05  6.6015E-05  6.3715E-05
       6.0636E-05  5.7727E-05  5.5569E-05  5.4264E-05  5.3625E-05  5.3333E-05  5.3054E-05  5.2522E-05  5.1600E-05  5.0294E-05
       4.8732E-05  4.7116E-05  4.5637E-05  4.4406E-05  4.3447E-05
  11   5.7818E-05  5.8645E-05  5.9443E-05  6.0166E-05  6.0746E-05  6.1109E-05  6.1224E-05  6.1154E-05  6.1067E-05  6.1171E-05
       6.1631E-05  6.2537E-05  6.3911E-05  6.5713E-05  6.7819E-05  6.9993E-05  7.1811E-05  7.2464E-05  7.0902E-05  6.7777E-05
       6.4021E-05  6.0575E-05  5.8013E-05  5.6450E-05  5.5689E-05  5.5359E-05  5.5049E-05  5.4445E-05  5.3412E-05  5.1984E-05
       5.0311E-05  4.8592E-05  4.6999E-05  4.5639E-05  4.4542E-05
  12   5.9370E-05  6.0388E-05  6.1369E-05  6.2259E-05  6.2981E-05  6.3452E-05  6.3628E-05  6.3583E-05  6.3545E-05  6.3796E-05
       6.4525E-05  6.5798E-05  6.7585E-05  6.9769E-05  7.2114E-05  7.4272E-05  7.5839E-05  7.6287E-05  7.4063E-05  7.0409E-05
       6.6226E-05  6.2447E-05  5.9653E-05  5.7990E-05  5.7262E-05  5.7043E-05  5.6819E-05  5.6213E-05  5.5100E-05  5.3560E-05
       5.1777E-05  4.9955E-05  4.8257E-05  4.6783E-05  4.5564E-05
  13   6.0812E-05  6.2010E-05  6.3165E-05  6.4216E-05  6.5082E-05  6.5661E-05  6.5875E-05  6.5792E-05  6.5729E-05  6.6084E-05
       6.7050E-05  6.8643E-05  7.0757E-05  7.3153E-05  7.5426E-05  7.7034E-05  7.7542E-05  7.6985E-05  7.4982E-05  7.1385E-05
       6.7139E-05  6.3266E-05  6.0413E-05  5.8793E-05  5.8254E-05  5.8316E-05  5.8313E-05  5.7775E-05  5.6605E-05  5.4959E-05
       5.3071E-05  5.1154E-05  4.9367E-05  4.7799E-05  4.6480E-05
  14   6.2099E-05  6.3455E-05  6.4761E-05  6.5954E-05  6.6950E-05  6.7630E-05  6.7865E-05  6.7676E-05  6.7509E-05  6.7932E-05
       6.9108E-05  7.0967E-05  7.3312E-05  7.5773E-05  7.7736E-05  7.8445E-05  7.7529E-05  7.5672E-05  7.4134E-05  7.0986E-05
       6.6958E-05  6.3175E-05  6.0380E-05  5.8888E-05  5.8644E-05  5.9148E-05  5.9496E-05  5.9073E-05  5.7855E-05  5.6108E-05
       5.4126E-05  5.2135E-05  5.0283E-05  4.8650E-05  4.7260E-05
  15   6.3190E-05  6.4672E-05  6.6089E-05  6.7382E-05  6.8470E-05  6.9231E-05  6.9486E-05  6.9139E-05  6.8808E-05  6.9301E-05
       7.0660E-05  7.2725E-05  7.5226E-05  7.7683E-05  7.9312E-05  7.9204E-05  7.7207E-05  7.4827E-05  7.2942E-05  6.9963E-05
       6.6162E-05  6.2531E-05  5.9826E-05  5.8446E-05  5.8496E-05  5.9552E-05  6.0344E-05  6.0038E-05  5.8759E-05  5.6922E-05
       5.4874E-05  5.2843E-05  5.0965E-05  4.9305E-05  4.7879E-05
  16   6.4051E-05  6.5614E-05  6.7091E-05  6.8419E-05  6.9526E-05  7.0306E-05  7.0586E-05  7.0091E-05  6.9637E-05  7.0237E-05
       7.1727E-05  7.3923E-05  7.6526E-05  7.9003E-05  8.0487E-05  7.9952E-05  7.7288E-05  7.4564E-05  7.2159E-05  6.9028E-05
       6.5318E-05  6.1805E-05  5.9158E-05  5.7798E-05  5.7988E-05  5.9585E-05  6.0828E-05  6.0565E-05  5.9210E-05  5.7317E-05
       5.5252E-05  5.3234E-05  5.1379E-05  4.9737E-05  4.8318E-05
  17   6.4656E-05  6.6252E-05  6.7727E-05  6.9013E-05  7.0047E-05  7.0732E-05  7.0911E-05  7.0504E-05  7.0211E-05  7.0818E-05
       7.2337E-05  7.4578E-05  7.7237E-05  7.9800E-05  8.1438E-05  8.1069E-05  7.8158E-05  7.5139E-05  7.2119E-05  6.8639E-05
       6.4885E-05  6.1434E-05  5.8816E-05  5.7404E-05  5.7472E-05  5.9329E-05  6.0853E-05  6.0504E-05  5.9106E-05  5.7227E-05
       5.5218E-05  5.3279E-05  5.1506E-05  4.9935E-05  4.8569E-05
  18   6.4991E-05  6.6574E-05  6.7987E-05  6.9160E-05  7.0040E-05  7.0564E-05  7.0663E-05  7.0409E-05  7.0321E-05  7.0965E-05
       7.2458E-05  7.4672E-05  7.7342E-05  8.0025E-05  8.2034E-05  8.2446E-05  8.0312E-05  7.6606E-05  7.2860E-05  6.8947E-05
       6.5079E-05  6.1657E-05  5.9073E-05  5.7643E-05  5.7633E-05  5.8973E-05  6.0089E-05  5.9748E-05  5.8407E-05  5.6632E-05
       5.4761E-05  5.2973E-05  5.1344E-05  4.9899E-05  4.8632E-05
  19   6.5054E-05  6.6584E-05  6.7888E-05  6.8892E-05  6.9564E-05  6.9901E-05  6.9932E-05  6.9803E-05  6.9890E-05  7.0585E-05
       7.2033E-05  7.4167E-05  7.6784E-05  7.9535E-05  8.1878E-05  8.3031E-05  8.2097E-05  7.8292E-05  7.3978E-05  6.9735E-05
       6.5789E-05  6.2404E-05  5.9845E-05  5.8337E-05  5.8007E-05  5.8580E-05  5.8992E-05  5.8465E-05  5.7186E-05  5.5573E-05
       5.3909E-05  5.2338E-05  5.0912E-05  4.9642E-05  4.8518E-05
  20   6.4851E-05  6.6297E-05  6.7458E-05  6.8257E-05  6.8688E-05  6.8822E-05  6.8772E-05  6.8714E-05  6.8917E-05  6.9646E-05
       7.1026E-05  7.3032E-05  7.5518E-05  7.8216E-05  8.0690E-05  8.2255E-05  8.1894E-05  7.8823E-05  7.4667E-05  7.0468E-05
       6.6619E-05  6.3338E-05  6.0796E-05  5.9110E-05  5.8281E-05  5.8014E-05  5.7669E-05  5.6825E-05  5.5561E-05  5.4132E-05
       5.2722E-05  5.1419E-05  5.0246E-05  4.9194E-05  4.8248E-05
  21   6.4392E-05  6.5735E-05  6.6736E-05  6.7310E-05  6.7480E-05  6.7392E-05  6.7237E-05  6.7196E-05  6.7451E-05  6.8174E-05
       6.9455E-05  7.1284E-05  7.3555E-05  7.6056E-05  7.8430E-05  8.0087E-05  8.0120E-05  7.7851E-05  7.4335E-05  7.0576E-05
       6.7057E-05  6.3996E-05  6.1499E-05  5.9596E-05  5.8220E-05  5.7157E-05  5.6105E-05  5.4914E-05  5.3640E-05  5.2403E-05
       5.1276E-05  5.0278E-05  4.9392E-05  4.8591E-05  4.7853E-05
  22   6.3686E-05  6.4914E-05  6.5755E-05  6.6104E-05  6.5998E-05  6.5672E-05  6.5394E-05  6.5325E-05  6.5578E-05  6.6247E-05
       6.7390E-05  6.8995E-05  7.0979E-05  7.3165E-05  7.5258E-05  7.6782E-05  7.7064E-05  7.5479E-05  7.2766E-05  6.9684E-05
       6.6678E-05  6.3953E-05  6.1571E-05  5.9502E-05  5.7650E-05  5.5912E-05  5.4260E-05  5.2767E-05  5.1501E-05  5.0474E-05
       4.9653E-05  4.8984E-05  4.8409E-05  4.7879E-05  4.7365E-05
  23   6.2741E-05  6.3846E-05  6.4537E-05  6.4681E-05  6.4298E-05  6.3727E-05  6.3320E-05  6.3195E-05  6.3397E-05  6.3968E-05
       6.4934E-05  6.6280E-05  6.7931E-05  6.9737E-05  7.1446E-05  7.2687E-05  7.3001E-05  7.1998E-05  7.0055E-05  6.7689E-05
       6.5258E-05  6.2937E-05  6.0753E-05  5.8629E-05  5.6456E-05  5.4216E-05  5.2104E-05  5.0408E-05  4.9211E-05  4.8429E-05
       4.7935E-05  4.7609E-05  4.7356E-05  4.7107E-05  4.6824E-05
  24   6.1566E-05  6.2533E-05  6.3087E-05  6.3071E-05  6.2433E-05  6.1629E-05  6.1106E-05  6.0906E-05  6.1016E-05  6.1448E-05
       6.2207E-05  6.3274E-05  6.4578E-05  6.5991E-05  6.7302E-05  6.8224E-05  6.8441E-05  6.7841E-05  6.6495E-05  6.4730E-05
       6.2816E-05  6.0886E-05  5.8944E-05  5.6888E-05  5.4584E-05  5.2043E-05  4.9630E-05  4.7872E-05  4.6839E-05  4.6350E-05
       4.6200E-05  4.6222E-05  4.6291E-05  4.6321E-05  4.6267E-05
  25   6.0175E-05  6.0980E-05  6.1390E-05  6.1264E-05  6.0455E-05  5.9464E-05  5.8851E-05  5.8548E-05  5.8529E-05  5.8790E-05
       5.9325E-05  6.0109E-05  6.1079E-05  6.2124E-05  6.3075E-05  6.3719E-05  6.3861E-05  6.3427E-05  6.2446E-05  6.1098E-05
       5.9563E-05  5.7940E-05  5.6221E-05  5.4303E-05  5.2036E-05  4.9405E-05  4.6864E-05  4.5226E-05  4.4472E-05  4.4322E-05
       4.4525E-05  4.4889E-05  4.5270E-05  4.5567E-05  4.5729E-05
  26   5.8599E-05  5.9210E-05  5.9444E-05  5.9173E-05  5.8358E-05  5.7359E-05  5.6623E-05  5.6183E-05  5.6007E-05  5.6079E-05
       5.6386E-05  5.6900E-05  5.7567E-05  5.8292E-05  5.8941E-05  5.9359E-05  5.9409E-05  5.9031E-05  5.8241E-05  5.7135E-05
       5.5830E-05  5.4394E-05  5.2820E-05  5.1029E-05  4.8883E-05  4.6345E-05  4.3891E-05  4.2597E-05  4.2224E-05  4.2436E-05
       4.2983E-05  4.3669E-05  4.4339E-05  4.4883E-05  4.5242E-05
  27   5.6886E-05  5.7288E-05  5.7341E-05  5.6960E-05  5.6166E-05  5.5212E-05  5.4405E-05  5.3835E-05  5.3498E-05  5.3381E-05
       5.3469E-05  5.3738E-05  5.4142E-05  5.4602E-05  5.5012E-05  5.5250E-05  5.5213E-05  5.4843E-05  5.4141E-05  5.3161E-05
       5.1975E-05  5.0625E-05  4.9109E-05  4.7374E-05  4.5336E-05  4.2886E-05  4.0947E-05  4.0189E-05  4.0223E-05  4.0777E-05
       4.1635E-05  4.2609E-05  4.3539E-05  4.4301E-05  4.4831E-05
  28   5.5094E-05  5.5291E-05  5.5182E-05  5.4719E-05  5.3944E-05  5.3033E-05  5.2191E-05  5.1517E-05  5.1034E-05  5.0743E-05
       5.0634E-05  5.0691E-05  5.0875E-05  5.1125E-05  5.1354E-05  5.1463E-05  5.1360E-05  5.0989E-05  5.0336E-05  4.9427E-05
       4.8307E-05  4.7003E-05  4.5513E-05  4.3805E-05  4.1842E-05  3.9775E-05  3.8555E-05  3.8222E-05  3.8579E-05  3.9410E-05
       4.0526E-05  4.1746E-05  4.2899E-05  4.3846E-05  4.4516E-05
  29   5.3278E-05  5.3287E-05  5.3039E-05  5.2511E-05  5.1748E-05  5.0866E-05  5.0005E-05  4.9252E-05  4.8646E-05  4.8203E-05
       4.7926E-05  4.7804E-05  4.7812E-05  4.7902E-05  4.8004E-05  4.8031E-05  4.7897E-05  4.7542E-05  4.6938E-05  4.6096E-05
       4.5042E-05  4.3801E-05  4.2382E-05  4.0794E-05  3.9099E-05  3.7577E-05  3.6787E-05  3.6754E-05  3.7336E-05  3.8368E-05
       3.9684E-05  4.1103E-05  4.2438E-05  4.3534E-05  4.4309E-05
  30   5.1485E-05  5.1328E-05  5.0962E-05  5.0380E-05  4.9620E-05  4.8756E-05  4.7881E-05  4.7067E-05  4.6363E-05  4.5794E-05
       4.5376E-05  4.5109E-05  4.4980E-05  4.4954E-05  4.4975E-05  4.4964E-05  4.4838E-05  4.4528E-05  4.3997E-05  4.3244E-05
       4.2289E-05  4.1157E-05  3.9879E-05  3.8504E-05  3.7149E-05  3.6074E-05  3.5596E-05  3.5763E-05  3.6489E-05  3.7656E-05
       3.9117E-05  4.0690E-05  4.2167E-05  4.3373E-05  4.4216E-05
  31   4.9750E-05  4.9451E-05  4.8985E-05  4.8357E-05  4.7594E-05  4.6741E-05  4.5854E-05  4.4993E-05  4.4210E-05  4.3540E-05
       4.3008E-05  4.2626E-05  4.2392E-05  4.2286E-05  4.2262E-05  4.2252E-05  4.2170E-05  4.1940E-05  4.1513E-05  4.0883E-05
       4.0066E-05  3.9094E-05  3.8013E-05  3.6895E-05  3.5870E-05  3.5139E-05  3.4897E-05  3.5201E-05  3.6017E-05  3.7265E-05
       3.8825E-05  4.0509E-05  4.2088E-05  4.3362E-05  4.4234E-05
  32   4.8103E-05  4.7682E-05  4.7131E-05  4.6462E-05  4.5697E-05  4.4851E-05  4.3954E-05  4.3056E-05  4.2210E-05  4.1460E-05
       4.0839E-05  4.0367E-05  4.0054E-05  3.9894E-05  3.9854E-05  3.9875E-05  3.9869E-05  3.9748E-05  3.9457E-05  3.8980E-05
       3.8336E-05  3.7562E-05  3.6710E-05  3.5861E-05  3.5133E-05  3.4674E-05  3.4618E-05  3.5023E-05  3.5890E-05  3.7180E-05
       3.8798E-05  4.0556E-05  4.2195E-05  4.3493E-05  4.4354E-05
  33   4.6561E-05  4.6040E-05  4.5416E-05  4.4712E-05  4.3945E-05  4.3107E-05  4.2201E-05  4.1274E-05  4.0381E-05  3.9571E-05
       3.8881E-05  3.8339E-05  3.7967E-05  3.7769E-05  3.7731E-05  3.7804E-05  3.7899E-05  3.7913E-05  3.7779E-05  3.7480E-05
       3.7033E-05  3.6479E-05  3.5873E-05  3.5289E-05  3.4827E-05  3.4598E-05  3.4700E-05  3.5188E-05  3.6084E-05  3.7383E-05
       3.9024E-05  4.0821E-05  4.2474E-05  4.3747E-05  4.4555E-05
  34   4.5140E-05  4.4538E-05  4.3855E-05  4.3118E-05  4.2351E-05  4.1521E-05  4.0607E-05  3.9660E-05  3.8736E-05  3.7884E-05
       3.7143E-05  3.6549E-05  3.6129E-05  3.5904E-05  3.5876E-05  3.6011E-05  3.6223E-05  3.6389E-05  3.6427E-05  3.6318E-05
       3.6081E-05  3.5758E-05  3.5399E-05  3.5073E-05  3.4857E-05  3.4836E-05  3.5085E-05  3.5651E-05  3.6568E-05  3.7855E-05
       3.9485E-05  4.1286E-05  4.2902E-05  4.4095E-05  4.4809E-05
  35   4.3846E-05  4.3185E-05  4.2458E-05  4.1691E-05  4.0920E-05  4.0097E-05  3.9179E-05  3.8223E-05  3.7284E-05  3.6406E-05
       3.5632E-05  3.5000E-05  3.4544E-05  3.4295E-05  3.4274E-05  3.4471E-05  3.4808E-05  3.5134E-05  3.5348E-05  3.5429E-05
       3.5404E-05  3.5309E-05  3.5193E-05  3.5112E-05  3.5128E-05  3.5306E-05  3.5702E-05  3.6357E-05  3.7303E-05  3.8569E-05
       4.0159E-05  4.1925E-05  4.3435E-05  4.4490E-05  4.5077E-05
  36   4.2682E-05  4.1983E-05  4.1231E-05  4.0450E-05  3.9660E-05  3.8826E-05  3.7916E-05  3.6968E-05  3.6028E-05  3.5143E-05
       3.4353E-05  3.3698E-05  3.3215E-05  3.2944E-05  3.2920E-05  3.3165E-05  3.3626E-05  3.4111E-05  3.4493E-05  3.4756E-05
       3.4930E-05  3.5053E-05  3.5166E-05  3.5314E-05  3.5547E-05  3.5915E-05  3.6462E-05  3.7221E-05  3.8218E-05  3.9480E-05
       4.1012E-05  4.2684E-05  4.4002E-05  4.4870E-05  4.5314E-05
  37   4.1645E-05  4.0924E-05  4.0161E-05  3.9374E-05  3.8569E-05  3.7726E-05  3.6828E-05  3.5897E-05  3.4972E-05  3.4096E-05
       3.3307E-05  3.2645E-05  3.2149E-05  3.1861E-05  3.1826E-05  3.2090E-05  3.2657E-05  3.3290E-05  3.3821E-05  3.4246E-05
       3.4601E-05  3.4919E-05  3.5238E-05  3.5592E-05  3.6021E-05  3.6564E-05  3.7255E-05  3.8123E-05  3.9191E-05  4.0478E-05
       4.2003E-05  4.3435E-05  4.4491E-05  4.5162E-05  4.5475E-05
  38   4.0726E-05  3.9998E-05  3.9234E-05  3.8446E-05  3.7637E-05  3.6796E-05  3.5915E-05  3.5010E-05  3.4114E-05  3.3262E-05
       3.2493E-05  3.1842E-05  3.1351E-05  3.1060E-05  3.1017E-05  3.1272E-05  3.1888E-05  3.2652E-05  3.3296E-05  3.3856E-05
       3.4364E-05  3.4848E-05  3.5340E-05  3.5868E-05  3.6463E-05  3.7154E-05  3.7967E-05  3.8926E-05  4.0049E-05  4.1348E-05
       4.2765E-05  4.3930E-05  4.4783E-05  4.5305E-05  4.5526E-05
  39   3.9917E-05  3.9193E-05  3.8436E-05  3.7655E-05  3.6854E-05  3.6025E-05  3.5170E-05  3.4301E-05  3.3445E-05  3.2633E-05
       3.1900E-05  3.1282E-05  3.0816E-05  3.0544E-05  3.0516E-05  3.0787E-05  3.1383E-05  3.2164E-05  3.2894E-05  3.3558E-05
       3.4182E-05  3.4795E-05  3.5421E-05  3.6084E-05  3.6805E-05  3.7605E-05  3.8504E-05  3.9515E-05  4.0645E-05  4.1877E-05
       4.3111E-05  4.4120E-05  4.4843E-05  4.5278E-05  4.5453E-05
  40   3.9208E-05  3.8496E-05  3.7754E-05  3.6989E-05  3.6204E-05  3.5400E-05  3.4579E-05  3.3755E-05  3.2950E-05  3.2191E-05
       3.1511E-05  3.0943E-05  3.0522E-05  3.0289E-05  3.0290E-05  3.0568E-05  3.1129E-05  3.1863E-05  3.2613E-05  3.3333E-05
       3.4033E-05  3.4733E-05  3.5450E-05  3.6202E-05  3.7006E-05  3.7874E-05  3.8818E-05  3.9841E-05  4.0937E-05  4.2071E-05
       4.3152E-05  4.4046E-05  4.4694E-05  4.5090E-05  4.5262E-05



            MULT. ARRAY: HK_Par1_M3
 READING ON UNIT    8 WITH FORMAT: (FREE)              

            1           2           3           4           5           6           7           8           9          10
           11          12          13          14          15          16          17          18          19          20
           21          22          23          24          25          26          27          28          29          30
           31          32          33          34          35
 ........................................................................................................................
   1   9.0637E-05  9.0148E-05  8.9576E-05  8.8951E-05  8.8338E-05  8.7833E-05  8.7536E-05  8.7516E-05  8.7815E-05  8.8456E-05
       8.9445E-05  9.0778E-05  9.2430E-05  9.4359E-05  9.6502E-05  9.8773E-05  1.0107E-04  1.0328E-04  1.0530E-04  1.0704E-04
       1.0846E-04  1.0954E-04  1.1034E-04  1.1091E-04  1.1133E-04  1.1165E-04  1.1194E-04  1.1224E-04  1.1258E-04  1.1298E-04
       1.1342E-04  1.1383E-04  1.1415E-04  1.1437E-04  1.1449E-04
   2   9.0857E-05  9.0334E-05  8.9703E-05  8.8990E-05  8.8267E-05  8.7655E-05  8.7278E-05  8.7216E-05  8.7508E-05  8.8176E-05
       8.9230E-05  9.0664E-05  9.2454E-05  9.4553E-05  9.6891E-05  9.9369E-05  1.0187E-04  1.0426E-04  1.0641E-04  1.0823E-04
       1.0966E-04  1.1071E-04  1.1143E-04  1.1190E-04  1.1221E-04  1.1243E-04  1.1263E-04  1.1285E-04  1.1314E-04  1.1353E-04
       1.1399E-04  1.1442E-04  1.1473E-04  1.1492E-04  1.1500E-04
   3   9.1131E-05  9.0581E-05  8.9902E-05  8.9113E-05  8.8285E-05  8.7570E-05  8.7126E-05  8.7033E-05  8.7327E-05  8.8031E-05
       8.9157E-05  9.0701E-05  9.2637E-05  9.4916E-05  9.7457E-05  1.0015E-04  1.0286E-04  1.0543E-04  1.0771E-04  1.0959E-04
       1.1101E-04  1.1200E-04  1.1261E-04  1.1297E-04  1.1316E-04  1.1327E-04  1.1337E-04  1.1351E-04  1.1375E-04  1.1412E-04
       1.1460E-04  1.1505E-04  1.1534E-04  1.1549E-04  1.1552E-04
   4   9.1456E-05  9.0886E-05  9.0171E-05  8.9322E-05  8.8396E-05  8.7585E-05  8.7091E-05  8.6978E-05  8.7280E-05  8.8025E-05
       8.9229E-05  9.0890E-05  9.2982E-05  9.5450E-05  9.8205E-05  1.0112E-04  1.0404E-04  1.0679E-04  1.0919E-04  1.1111E-04
       1.1251E-04  1.1340E-04  1.1389E-04  1.1411E-04  1.1417E-04  1.1416E-04  1.1416E-04  1.1422E-04  1.1439E-04  1.1472E-04
       1.1523E-04  1.1570E-04  1.1596E-04  1.1605E-04  1.1602E-04
   5   9.1828E-05  9.1241E-05  9.0495E-05  8.9603E-05  8.8597E-05  8.7711E-05  8.7183E-05  8.7054E-05  8.7365E-05  8.8153E-05
       8.9438E-05  9.1221E-05  9.3477E-05  9.6145E-05  9.9124E-05  1.0227E-04  1.0542E-04  1.0835E-04  1.1088E-04  1.1282E-04
       1.1415E-04  1.1490E-04  1.1523E-04  1.1530E-04  1.1522E-04  1.1510E-04  1.1501E-04  1.1498E-04  1.1508E-04  1.1535E-04
       1.1586E-04  1.1634E-04  1.1655E-04  1.1658E-04  1.1650E-04
   6   9.2247E-05  9.1642E-05  9.0861E-05  8.9920E-05  8.8887E-05  8.7978E-05  8.7407E-05  8.7254E-05  8.7570E-05  8.8398E-05
       8.9764E-05  9.1674E-05  9.4100E-05  9.6977E-05  1.0019E-04  1.0358E-04  1.0695E-04  1.1007E-04  1.1272E-04  1.1470E-04
       1.1589E-04  1.1646E-04  1.1660E-04  1.1650E-04  1.1629E-04  1.1607E-04  1.1589E-04  1.1580E-04  1.1584E-04  1.1607E-04
       1.1649E-04  1.1689E-04  1.1708E-04  1.1708E-04  1.1695E-04
   7   9.2713E-05  9.2093E-05  9.1281E-05  9.0307E-05  8.9265E-05  8.8345E-05  8.7738E-05  8.7556E-05  8.7870E-05  8.8734E-05
       9.0180E-05  9.2219E-05  9.4820E-05  9.7911E-05  1.0137E-04  1.0500E-04  1.0859E-04  1.1188E-04  1.1462E-04  1.1659E-04
       1.1762E-04  1.1799E-04  1.1794E-04  1.1768E-04  1.1735E-04  1.1703E-04  1.1678E-04  1.1665E-04  1.1665E-04  1.1682E-04
       1.1713E-04  1.1743E-04  1.1756E-04  1.1753E-04  1.1737E-04
   8   9.3230E-05  9.2601E-05  9.1767E-05  9.0770E-05  8.9718E-05  8.8784E-05  8.8144E-05  8.7931E-05  8.8236E-05  8.9129E-05
       9.0652E-05  9.2817E-05  9.5596E-05  9.8905E-05  1.0260E-04  1.0647E-04  1.1025E-04  1.1367E-04  1.1643E-04  1.1830E-04
       1.1921E-04  1.1940E-04  1.1919E-04  1.1878E-04  1.1834E-04  1.1795E-04  1.1766E-04  1.1750E-04  1.1747E-04  1.1758E-04
       1.1778E-04  1.1797E-04  1.1803E-04  1.1795E-04  1.1776E-04
   9   9.3801E-05  9.3171E-05  9.2321E-05  9.1305E-05  9.0234E-05  8.9273E-05  8.8594E-05  8.8343E-05  8.8632E-05  8.9546E-05
       9.1140E-05  9.3429E-05  9.6382E-05  9.9909E-05  1.0384E-04  1.0793E-04  1.1188E-04  1.1536E-04  1.1808E-04  1.1982E-04
       1.2059E-04  1.2063E-04  1.2027E-04  1.1975E-04  1.1923E-04  1.1880E-04  1.1850E-04  1.1832E-04  1.1827E-04  1.1832E-04
       1.1843E-04  1.1851E-04  1.1850E-04  1.1836E-04  1.1811E-04
  10   9.4425E-05  9.3801E-05  9.2940E-05  9.1898E-05  9.0795E-05  8.9791E-05  8.9059E-05  8.8758E-05  8.9021E-05  8.9948E-05
       9.1604E-05  9.4010E-05  9.7133E-05  1.0087E-04  1.0503E-04  1.0933E-04  1.1341E-04  1.1690E-04  1.1952E-04  1.2111E-04
       1.2172E-04  1.2162E-04  1.2114E-04  1.2054E-04  1.1999E-04  1.1956E-04  1.1927E-04  1.1910E-04  1.1903E-04  1.1903E-04
       1.1906E-04  1.1905E-04  1.1895E-04  1.1875E-04  1.1845E-04
  11   9.5097E-05  9.4486E-05  9.3612E-05  9.2536E-05  9.1382E-05  9.0314E-05  8.9511E-05  8.9145E-05  8.9367E-05  9.0295E-05
       9.2005E-05  9.4519E-05  9.7804E-05  1.0175E-04  1.0613E-04  1.1063E-04  1.1481E-04  1.1826E-04  1.2076E-04  1.2216E-04
       1.2259E-04  1.2235E-04  1.2177E-04  1.2113E-04  1.2058E-04  1.2019E-04  1.1994E-04  1.1981E-04  1.1974E-04  1.1971E-04
       1.1966E-04  1.1956E-04  1.1939E-04  1.1911E-04  1.1875E-04
  12   9.5808E-05  9.5215E-05  9.4323E-05  9.3199E-05  9.1973E-05  9.0818E-05  8.9922E-05  8.9471E-05  8.9637E-05  9.0557E-05
       9.2310E-05  9.4922E-05  9.8355E-05  1.0249E-04  1.0709E-04  1.1179E-04  1.1608E-04  1.1947E-04  1.2179E-04  1.2295E-04
       1.2319E-04  1.2281E-04  1.2217E-04  1.2152E-04  1.2101E-04  1.2069E-04  1.2052E-04  1.2044E-04  1.2039E-04  1.2032E-04
       1.2022E-04  1.2004E-04  1.1979E-04  1.1944E-04  1.1901E-04
  13   9.6549E-05  9.5975E-05  9.5057E-05  9.3866E-05  9.2543E-05  9.1275E-05  9.0263E-05  8.9708E-05  8.9805E-05  9.0707E-05
       9.2498E-05  9.5195E-05  9.8757E-05  1.0306E-04  1.0787E-04  1.1278E-04  1.1721E-04  1.2057E-04  1.2261E-04  1.2350E-04
       1.2353E-04  1.2305E-04  1.2236E-04  1.2173E-04  1.2129E-04  1.2107E-04  1.2101E-04  1.2099E-04  1.2096E-04  1.2087E-04
       1.2071E-04  1.2047E-04  1.2014E-04  1.1972E-04  1.1922E-04
  14   9.7304E-05  9.6750E-05  9.5795E-05  9.4513E-05  9.3066E-05  9.1660E-05  9.0510E-05  8.9834E-05  8.9850E-05  9.0733E-05
       9.2558E-05  9.5330E-05  9.8996E-05  1.0343E-04  1.0841E-04  1.1350E-04  1.1808E-04  1.2141E-04  1.2317E-04  1.2380E-04
       1.2367E-04  1.2310E-04  1.2240E-04  1.2180E-04  1.2144E-04  1.2135E-04  1.2140E-04  1.2146E-04  1.2145E-04  1.2134E-04
       1.2113E-04  1.2082E-04  1.2042E-04  1.1993E-04  1.1937E-04
  15   9.8059E-05  9.7523E-05  9.6515E-05  9.5118E-05  9.3514E-05  9.1941E-05  9.0637E-05  8.9828E-05  8.9764E-05  9.0637E-05
       9.2500E-05  9.5337E-05  9.9081E-05  1.0360E-04  1.0867E-04  1.1389E-04  1.1854E-04  1.2176E-04  1.2337E-04  1.2386E-04
       1.2365E-04  1.2307E-04  1.2238E-04  1.2181E-04  1.2153E-04  1.2156E-04  1.2174E-04  1.2186E-04  1.2185E-04  1.2170E-04
       1.2145E-04  1.2108E-04  1.2062E-04  1.2007E-04  1.1945E-04
  16   9.8794E-05  9.8275E-05  9.7199E-05  9.5654E-05  9.3857E-05  9.2086E-05  9.0618E-05  8.9679E-05  8.9552E-05  9.0436E-05
       9.2348E-05  9.5250E-05  9.9048E-05  1.0359E-04  1.0865E-04  1.1387E-04  1.1854E-04  1.2164E-04  1.2322E-04  1.2375E-04
       1.2359E-04  1.2305E-04  1.2240E-04  1.2186E-04  1.2163E-04  1.2176E-04  1.2203E-04  1.2217E-04  1.2214E-04  1.2196E-04
       1.2165E-04  1.2123E-04  1.2071E-04  1.2011E-04  1.1944E-04
  17   9.9488E-05  9.8988E-05  9.7826E-05  9.6102E-05  9.4072E-05  9.2068E-05  9.0415E-05  8.9385E-05  8.9241E-05  9.0153E-05
       9.2134E-05  9.5113E-05  9.8961E-05  1.0348E-04  1.0842E-04  1.1345E-04  1.1807E-04  1.2112E-04  1.2288E-04  1.2362E-04
       1.2362E-04  1.2319E-04  1.2259E-04  1.2207E-04  1.2182E-04  1.2198E-04  1.2230E-04  1.2240E-04  1.2232E-04  1.2209E-04
       1.2172E-04  1.2125E-04  1.2069E-04  1.2004E-04  1.1933E-04
  18   1.0012E-04  9.9641E-05  9.8380E-05  9.6445E-05  9.4142E-05  9.1876E-05  9.0037E-05  8.8938E-05  8.8816E-05  8.9800E-05
       9.1887E-05  9.4980E-05  9.8904E-05  1.0340E-04  1.0816E-04  1.1281E-04  1.1703E-04  1.2038E-04  1.2256E-04  1.2365E-04
       1.2388E-04  1.2357E-04  1.2302E-04  1.2251E-04  1.2224E-04  1.2230E-04  1.2248E-04  1.2251E-04  1.2237E-04  1.2207E-04
       1.2166E-04  1.2114E-04  1.2054E-04  1.1986E-04  1.1913E-04
  19   1.0066E-04  1.0021E-04  9.8842E-05  9.6670E-05  9.4058E-05  9.1505E-05  8.9483E-05  8.8338E-05  8.8277E-05  8.9384E-05
       9.1631E-05  9.4893E-05  9.8953E-05  1.0350E-04  1.0812E-04  1.1243E-04  1.1625E-04  1.1994E-04  1.2258E-04  1.2401E-04
       1.2445E-04  1.2423E-04  1.2370E-04  1.2315E-04  1.2278E-04  1.2266E-04  1.2264E-04  1.2253E-04  1.2228E-04  1.2191E-04
       1.2144E-04  1.2089E-04  1.2026E-04  1.1956E-04  1.1881E-04
  20   1.0106E-04  1.0066E-04  9.9193E-05  9.6767E-05  9.3812E-05  9.0950E-05  8.8755E-05  8.7594E-05  8.7636E-05  8.8920E-05
       9.1383E-05  9.4878E-05  9.9156E-05  1.0386E-04  1.0851E-04  1.1271E-04  1.1648E-04  1.2024E-04  1.2315E-04  1.2480E-04
       1.2534E-04  1.2513E-04  1.2456E-04  1.2390E-04  1.2336E-04  1.2300E-04  1.2273E-04  1.2244E-04  1.2206E-04  1.2161E-04
       1.2108E-04  1.2050E-04  1.1985E-04  1.1914E-04  1.1839E-04
  21   1.0128E-04  1.0095E-04  9.9405E-05  9.6724E-05  9.3400E-05  9.0214E-05  8.7866E-05  8.6729E-05  8.6920E-05  8.8424E-05
       9.1149E-05  9.4931E-05  9.9508E-05  1.0449E-04  1.0938E-04  1.1371E-04  1.1752E-04  1.2133E-04  1.2430E-04  1.2597E-04
       1.2647E-04  1.2619E-04  1.2549E-04  1.2466E-04  1.2390E-04  1.2327E-04  1.2274E-04  1.2223E-04  1.2171E-04  1.2116E-04
       1.2058E-04  1.1996E-04  1.1931E-04  1.1861E-04  1.1786E-04
  22   1.0126E-04  1.0102E-04  9.9437E-05  9.6530E-05  9.2822E-05  8.9305E-05  8.6844E-05  8.5785E-05  8.6164E-05  8.7916E-05
       9.0926E-05  9.5025E-05  9.9950E-05  1.0532E-04  1.1061E-04  1.1532E-04  1.1925E-04  1.2308E-04  1.2589E-04  1.2738E-04
       1.2772E-04  1.2726E-04  1.2637E-04  1.2533E-04  1.2431E-04  1.2340E-04  1.2261E-04  1.2188E-04  1.2120E-04  1.2056E-04
       1.1993E-04  1.1929E-04  1.1864E-04  1.1795E-04  1.1722E-04
  23   1.0091E-04  1.0077E-04  9.9218E-05  9.6161E-05  9.2081E-05  8.8250E-05  8.5745E-05  8.4821E-05  8.5413E-05  8.7414E-05
       9.0701E-05  9.5109E-05  1.0039E-04  1.0616E-04  1.1196E-04  1.1724E-04  1.2164E-04  1.2518E-04  1.2763E-04  1.2881E-04
       1.2890E-04  1.2821E-04  1.2709E-04  1.2579E-04  1.2452E-04  1.2335E-04  1.2230E-04  1.2137E-04  1.2054E-04  1.1981E-04
       1.1913E-04  1.1849E-04  1.1785E-04  1.1719E-04  1.1649E-04
  24   1.0017E-04  1.0011E-04  9.8634E-05  9.5566E-05  9.1187E-05  8.7105E-05  8.4661E-05  8.3913E-05  8.4710E-05  8.6930E-05
       9.0452E-05  9.5123E-05  1.0070E-04  1.0684E-04  1.1307E-04  1.1887E-04  1.2374E-04  1.2707E-04  1.2915E-04  1.3002E-04
       1.2983E-04  1.2890E-04  1.2753E-04  1.2599E-04  1.2447E-04  1.2305E-04  1.2179E-04  1.2068E-04  1.1972E-04  1.1891E-04
       1.1820E-04  1.1756E-04  1.1695E-04  1.1632E-04  1.1567E-04
  25   9.8967E-05  9.8914E-05  9.7519E-05  9.4607E-05  9.0163E-05  8.5987E-05  8.3717E-05  8.3131E-05  8.4083E-05  8.6459E-05
       9.0150E-05  9.5009E-05  1.0081E-04  1.0721E-04  1.1373E-04  1.1981E-04  1.2484E-04  1.2825E-04  1.3017E-04  1.3081E-04
       1.3039E-04  1.2922E-04  1.2763E-04  1.2586E-04  1.2412E-04  1.2251E-04  1.2106E-04  1.1980E-04  1.1873E-04  1.1786E-04
       1.1714E-04  1.1652E-04  1.1594E-04  1.1536E-04  1.1475E-04
  26   9.7316E-05  9.7167E-05  9.5760E-05  9.2932E-05  8.8930E-05  8.5159E-05  8.2985E-05  8.2483E-05  8.3517E-05  8.5976E-05
       8.9756E-05  9.4716E-05  1.0063E-04  1.0717E-04  1.1384E-04  1.2006E-04  1.2516E-04  1.2866E-04  1.3057E-04  1.3108E-04
       1.3049E-04  1.2913E-04  1.2734E-04  1.2538E-04  1.2346E-04  1.2169E-04  1.2011E-04  1.1872E-04  1.1757E-04  1.1667E-04
       1.1595E-04  1.1536E-04  1.1484E-04  1.1431E-04  1.1376E-04
  27   9.5287E-05  9.4971E-05  9.3532E-05  9.0901E-05  8.7456E-05  8.4253E-05  8.2306E-05  8.1887E-05  8.2959E-05  8.5437E-05
       8.9230E-05  9.4205E-05  1.0015E-04  1.0671E-04  1.1343E-04  1.1967E-04  1.2482E-04  1.2841E-04  1.3034E-04  1.3080E-04
       1.3010E-04  1.2861E-04  1.2666E-04  1.2455E-04  1.2249E-04  1.2062E-04  1.1892E-04  1.1744E-04  1.1625E-04  1.1534E-04
       1.1465E-04  1.1411E-04  1.1364E-04  1.1318E-04  1.1270E-04
  28   9.2996E-05  9.2497E-05  9.1055E-05  8.8692E-05  8.5803E-05  8.3168E-05  8.1537E-05  8.1240E-05  8.2335E-05  8.4791E-05
       8.8535E-05  9.3450E-05  9.9331E-05  1.0585E-04  1.1252E-04  1.1875E-04  1.2392E-04  1.2757E-04  1.2956E-04  1.3001E-04
       1.2926E-04  1.2767E-04  1.2561E-04  1.2339E-04  1.2123E-04  1.1926E-04  1.1748E-04  1.1598E-04  1.1478E-04  1.1389E-04
       1.1324E-04  1.1276E-04  1.1236E-04  1.1198E-04  1.1158E-04
  29   9.0570E-05  8.9902E-05  8.8491E-05  8.6415E-05  8.4028E-05  8.1910E-05  8.0616E-05  8.0470E-05  8.1591E-05  8.3996E-05
       8.7645E-05  9.2440E-05  9.8196E-05  1.0460E-04  1.1118E-04  1.1737E-04  1.2255E-04  1.2625E-04  1.2829E-04  1.2877E-04
       1.2800E-04  1.2636E-04  1.2423E-04  1.2193E-04  1.1970E-04  1.1766E-04  1.1586E-04  1.1436E-04  1.1320E-04  1.1234E-04
       1.1175E-04  1.1134E-04  1.1102E-04  1.1072E-04  1.1040E-04
  30   8.8119E-05  8.7309E-05  8.5949E-05  8.4145E-05  8.2193E-05  8.0520E-05  7.9545E-05  7.9555E-05  8.0700E-05  8.3035E-05
       8.6554E-05  9.1182E-05  9.6760E-05  1.0300E-04  1.0946E-04  1.1559E-04  1.2077E-04  1.2452E-04  1.2662E-04  1.2714E-04
       1.2638E-04  1.2473E-04  1.2257E-04  1.2024E-04  1.1796E-04  1.1589E-04  1.1410E-04  1.1264E-04  1.1152E-04  1.1073E-04
       1.1019E-04  1.0985E-04  1.0961E-04  1.0940E-04  1.0917E-04
  31   8.5730E-05  8.4806E-05  8.3505E-05  8.1940E-05  8.0353E-05  7.9055E-05  7.8357E-05  7.8508E-05  7.9666E-05  8.1915E-05
       8.5275E-05  8.9700E-05  9.5058E-05  1.0110E-04  1.0741E-04  1.1346E-04  1.1864E-04  1.2244E-04  1.2460E-04  1.2519E-04
       1.2446E-04  1.2283E-04  1.2069E-04  1.1835E-04  1.1608E-04  1.1402E-04  1.1226E-04  1.1085E-04  1.0980E-04  1.0906E-04
       1.0859E-04  1.0831E-04  1.0816E-04  1.0805E-04  1.0791E-04
  32   8.3468E-05  8.2457E-05  8.1212E-05  7.9850E-05  7.8563E-05  7.7572E-05  7.7103E-05  7.7365E-05  7.8520E-05  8.0665E-05
       8.3844E-05  8.8035E-05  9.3139E-05  9.8942E-05  1.0508E-04  1.1105E-04  1.1623E-04  1.2008E-04  1.2232E-04  1.2297E-04
       1.2231E-04  1.2073E-04  1.1864E-04  1.1635E-04  1.1411E-04  1.1210E-04  1.1040E-04  1.0905E-04  1.0806E-04  1.0738E-04
       1.0696E-04  1.0675E-04  1.0668E-04  1.0666E-04  1.0663E-04
  33   8.1379E-05  8.0304E-05  7.9109E-05  7.7913E-05  7.6871E-05  7.6127E-05  7.5836E-05  7.6177E-05  7.7308E-05  7.9334E-05
       8.2313E-05  8.6246E-05  9.1064E-05  9.6597E-05  1.0254E-04  1.0840E-04  1.1359E-04  1.1750E-04  1.1980E-04  1.2053E-04
       1.1996E-04  1.1848E-04  1.1647E-04  1.1426E-04  1.1210E-04  1.1016E-04  1.0853E-04  1.0726E-04  1.0633E-04  1.0571E-04
       1.0533E-04  1.0517E-04  1.0518E-04  1.0527E-04  1.0534E-04
  34   7.9496E-05  7.8380E-05  7.7231E-05  7.6164E-05  7.5319E-05  7.4770E-05  7.4608E-05  7.4998E-05  7.6087E-05  7.7982E-05
       8.0749E-05  8.4404E-05  8.8908E-05  9.4135E-05  9.9834E-05  1.0558E-04  1.1077E-04  1.1474E-04  1.1712E-04  1.1794E-04
       1.1748E-04  1.1611E-04  1.1423E-04  1.1214E-04  1.1009E-04  1.0824E-04  1.0671E-04  1.0552E-04  1.0466E-04  1.0407E-04
       1.0372E-04  1.0359E-04  1.0369E-04  1.0389E-04  1.0407E-04
  35   7.7838E-05  7.6706E-05  7.5603E-05  7.4636E-05  7.3939E-05  7.3537E-05  7.3464E-05  7.3880E-05  7.4917E-05  7.6677E-05
       7.9225E-05  8.2593E-05  8.6761E-05  9.1644E-05  9.7056E-05  1.0265E-04  1.0783E-04  1.1185E-04  1.1430E-04  1.1522E-04
       1.1488E-04  1.1368E-04  1.1195E-04  1.1002E-04  1.0810E-04  1.0638E-04  1.0495E-04  1.0384E-04  1.0305E-04  1.0251E-04
       1.0216E-04  1.0206E-04  1.0224E-04  1.0255E-04  1.0285E-04
  36   7.6416E-05  7.5293E-05  7.4246E-05  7.3372E-05  7.2764E-05  7.2445E-05  7.2445E-05  7.2877E-05  7.3860E-05  7.5485E-05
       7.7821E-05  8.0900E-05  8.4722E-05  8.9229E-05  9.4296E-05  9.9668E-05  1.0482E-04  1.0889E-04  1.1139E-04  1.1241E-04
       1.1223E-04  1.1121E-04  1.0968E-04  1.0793E-04  1.0618E-04  1.0459E-04  1.0327E-04  1.0226E-04  1.0155E-04  1.0105E-04
       1.0069E-04  1.0060E-04  1.0087E-04  1.0129E-04  1.0169E-04
  37   7.5228E-05  7.4137E-05  7.3153E-05  7.2357E-05  7.1815E-05  7.1552E-05  7.1600E-05  7.2041E-05  7.2970E-05  7.4472E-05
       7.6607E-05  7.9411E-05  8.2891E-05  8.7009E-05  9.1678E-05  9.6734E-05  1.0181E-04  1.0588E-04  1.0843E-04  1.0955E-04
       1.0955E-04  1.0874E-04  1.0743E-04  1.0590E-04  1.0434E-04  1.0291E-04  1.0171E-04  1.0080E-04  1.0015E-04  9.9710E-05
       9.9331E-05  9.9288E-05  9.9659E-05  1.0016E-04  1.0062E-04
  38   7.4264E-05  7.3225E-05  7.2310E-05  7.1586E-05  7.1101E-05  7.0884E-05  7.0966E-05  7.1411E-05  7.2294E-05  7.3687E-05
       7.5643E-05  7.8199E-05  8.1361E-05  8.5104E-05  8.9359E-05  9.3997E-05  9.8833E-05  1.0289E-04  1.0544E-04  1.0669E-04
       1.0688E-04  1.0631E-04  1.0525E-04  1.0395E-04  1.0260E-04  1.0135E-04  1.0029E-04  9.9468E-05  9.8886E-05  9.8482E-05
       9.8206E-05  9.8255E-05  9.8644E-05  9.9164E-05  9.9653E-05
  39   7.3510E-05  7.2540E-05  7.1701E-05  7.1048E-05  7.0621E-05  7.0448E-05  7.0562E-05  7.1012E-05  7.1859E-05  7.3162E-05
       7.4969E-05  7.7309E-05  8.0192E-05  8.3600E-05  8.7481E-05  9.1735E-05  9.6113E-05  9.9925E-05  1.0250E-04  1.0387E-04
       1.0426E-04  1.0395E-04  1.0316E-04  1.0212E-04  1.0099E-04  9.9928E-05  9.9013E-05  9.8297E-05  9.7788E-05  9.7455E-05
       9.7296E-05  9.7412E-05  9.7794E-05  9.8295E-05  9.8780E-05
  40   7.2944E-05  7.2061E-05  7.1306E-05  7.0728E-05  7.0361E-05  7.0235E-05  7.0383E-05  7.0844E-05  7.1669E-05  7.2904E-05
       7.4590E-05  7.6751E-05  7.9395E-05  8.2505E-05  8.6035E-05  8.9880E-05  9.3782E-05  9.7216E-05  9.9695E-05  1.0116E-04
       1.0175E-04  1.0169E-04  1.0118E-04  1.0040E-04  9.9515E-05  9.8650E-05  9.7891E-05  9.7292E-05  9.6868E-05  9.6615E-05
       9.6545E-05  9.6700E-05  9.7060E-05  9.7524E-05  9.7987E-05



             ZONE ARRAY: HK_Par1_Z1
 READING ON UNIT   13 WITH FORMAT: (FREE)              



             ZONE ARRAY: HK_Par1_Z2
 READING ON UNIT   13 WITH FORMAT: (FREE)              



             ZONE ARRAY: HK_Par1_Z3
 READING ON UNIT   13 WITH FORMAT: (FREE)              

 LPF -- LAYER-PROPERTY FLOW PACKAGE, VERSION 7, 5/2/2005
         INPUT READ FROM UNIT   11
 # LPF: Layer Property Flow package file
 CELL-BY-CELL FLOWS WILL BE SAVED ON UNIT   50
 HEAD AT CELLS THAT CONVERT TO DRY=   999.00    
     1 Named Parameters     

   LAYER FLAGS:
 LAYER       LAYTYP        LAYAVG         CHANI        LAYVKA        LAYWET
 ---------------------------------------------------------------------------
    1             0             0     1.000E+00             1             0
    2             0             0     1.000E+00             1             0
    3             0             0     1.000E+00             1             0

   INTERPRETATION OF LAYER FLAGS:
                        INTERBLOCK     HORIZONTAL    DATA IN
         LAYER TYPE   TRANSMISSIVITY   ANISOTROPY   ARRAY VKA   WETTABILITY
 LAYER      (LAYTYP)      (LAYAVG)       (CHANI)      (LAYVKA)      (LAYWET)
 ---------------------------------------------------------------------------
    1      CONFINED      HARMONIC     1.000E+00    ANISOTROPY  NON-WETTABLE
    2      CONFINED      HARMONIC     1.000E+00    ANISOTROPY  NON-WETTABLE
    3      CONFINED      HARMONIC     1.000E+00    ANISOTROPY  NON-WETTABLE

 WETTING CAPABILITY IS NOT ACTIVE IN ANY LAYER

 PARAMETERS DEFINED IN THE LPF PACKAGE

 PARAMETER NAME:HK_Par1      TYPE:HK     CLUSTERS:   3
 Parameter value from package file is:    1.0000    
                LAYER:   1    MULTIPLIER ARRAY: HK_Par1_M1    ZONE ARRAY: HK_Par1_Z1
                ZONE VALUES:    1
                LAYER:   2    MULTIPLIER ARRAY: HK_Par1_M2    ZONE ARRAY: HK_Par1_Z2
                ZONE VALUES:    1
                LAYER:   3    MULTIPLIER ARRAY: HK_Par1_M3    ZONE ARRAY: HK_Par1_Z3
                ZONE VALUES:    1

    HYD. COND. ALONG ROWS FOR LAYER   1 WILL BE DEFINED BY PARAMETERS
 (PRINT FLAG=  -1)

    HYD. COND. ALONG ROWS is defined by the following parameters:
 HK_Par1   


              HYD. COND. ALONG ROWS FOR LAYER   1

  HORIZ. TO VERTICAL ANI. =   1.00000     FOR LAYER   1

    HYD. COND. ALONG ROWS FOR LAYER   2 WILL BE DEFINED BY PARAMETERS
 (PRINT FLAG=  -1)

    HYD. COND. ALONG ROWS is defined by the following parameters:
 HK_Par1   


              HYD. COND. ALONG ROWS FOR LAYER   2

  HORIZ. TO VERTICAL ANI. =   1.00000     FOR LAYER   2

    HYD. COND. ALONG ROWS FOR LAYER   3 WILL BE DEFINED BY PARAMETERS
 (PRINT FLAG=  -1)

    HYD. COND. ALONG ROWS is defined by the following parameters:
 HK_Par1   


              HYD. COND. ALONG ROWS FOR LAYER   3

  HORIZ. TO VERTICAL ANI. =   1.00000     FOR LAYER   3

 WEL -- WELL PACKAGE, VERSION 7, 5/2/2005 INPUT READ FROM UNIT   12
 # WEL: Well package file
 No named parameters
 MAXIMUM OF      3 ACTIVE WELLS AT ONE TIME
 CELL-BY-CELL FLOWS WILL BE SAVED ON UNIT   54


     0 Well parameters

 CHD -- TIME-VARIANT SPECIFIED-HEAD OPTION, VERSION 7, 5/2/2005
 INPUT READ FROM UNIT   40
 # CHD: Time-Variant Specified-Head package file created
 No named parameters
 MAXIMUM OF    240 TIME-VARIANT SPECIFIED-HEAD CELLS AT ONE TIME
 AUXILIARY CHD VARIABLE: IFACE           


     0 TIME-VARIANT SPECIFIED-HEAD PARAMETERS

 PCG -- CONJUGATE-GRADIENT SOLUTION PACKAGE, VERSION 7, 5/2/2005
 MAXIMUM OF   1000 CALLS OF SOLUTION ROUTINE
 MAXIMUM OF     40 INTERNAL ITERATIONS PER CALL TO SOLUTION ROUTINE
 MATRIX PRECONDITIONING TYPE :    1



                                    SOLUTION BY THE CONJUGATE-GRADIENT METHOD
                                   -------------------------------------------
                    MAXIMUM NUMBER OF CALLS TO PCG ROUTINE =     1000
                        MAXIMUM ITERATIONS PER CALL TO PCG =       40
                               MATRIX PRECONDITIONING TYPE =        1
        RELAXATION FACTOR (ONLY USED WITH PRECOND. TYPE 1) =    0.10000E+01
 PARAMETER OF POLYNOMIAL PRECOND. = 2 (2) OR IS CALCULATED :        2
                         HEAD CHANGE CRITERION FOR CLOSURE =    0.10000E-05
                     RESIDUAL CHANGE CRITERION FOR CLOSURE =    0.10000E-05
            PCG HEAD AND RESIDUAL CHANGE PRINTOUT INTERVAL =        5
     PRINTING FROM SOLVER IS LIMITED(1) OR SUPPRESSED (>1) =        0
                                         DAMPING PARAMETER =    0.10000E+01

 OBS2BAS7 -- HEAD OBSERVATIONS, VERSION 2.0, 2/28/2006
 INPUT READ FROM UNIT  18
 # HOB: Head Observation package file

 NUMBER OF HEADS....................................:   36
   NUMBER OF MULTILAYER HEADS.......................:    0
   MAXIMUM NUMBER OF LAYERS FOR MULTILAYER HEADS....:    2
 HEAD OBSERVATIONS WILL BE SAVED ON UNIT............:   14
 SIMULATED EQUIVALENT HEAD AT DRY CELLS WILL BE:    999.000    

 OBSERVED HEAD DATA -- TIME OFFSETS ARE MULTIPLIED BY:   1.0000    

                    REFER.
       OBSERVATION  STRESS    TIME
  OBS#    NAME      PERIOD   OFFSET    OBSERVATION
     1 obs1_01          1    1.000       0.000    
     2 obs1_02          1    1.000       0.000    
     3 obs1_03          1    1.000       0.000    
     4 obs1_04          1    1.000       0.000    
     5 obs1_05          1    1.000       0.000    
     6 obs1_06          1    1.000       0.000    
     7 obs1_07          1    1.000       0.000    
     8 obs1_08          1    1.000       0.000    
     9 obs1_09          1    1.000       0.000    
    10 obs1_10          1    1.000       0.000    
    11 obs1_11          1    1.000       0.000    
    12 obs1_12          1    1.000       0.000    
    13 obs2_01          1    1.000       0.000    
    14 obs2_02          1    1.000       0.000    
    15 obs2_03          1    1.000       0.000    
    16 obs2_04          1    1.000       0.000    
    17 obs2_05          1    1.000       0.000    
    18 obs2_06          1    1.000       0.000    
    19 obs2_07          1    1.000       0.000    
    20 obs2_08          1    1.000       0.000    
    21 obs2_09          1    1.000       0.000    
    22 obs2_10          1    1.000       0.000    
    23 obs2_11          1    1.000       0.000    
    24 obs2_12          1    1.000       0.000    
    25 obs3_01          1    1.000       0.000    
    26 obs3_02          1    1.000       0.000    
    27 obs3_03          1    1.000       0.000    
    28 obs3_04          1    1.000       0.000    
    29 obs3_05          1    1.000       0.000    
    30 obs3_06          1    1.000       0.000    
    31 obs3_07          1    1.000       0.000    
    32 obs3_08          1    1.000       0.000    
    33 obs3_09          1    1.000       0.000    
    34 obs3_10          1    1.000       0.000    
    35 obs3_11          1    1.000       0.000    
    36 obs3_12          1    1.000       0.000    

                                                     HEAD CHANGE
                                                      REFERENCE
        OBSERVATION                   ROW     COL    OBSERVATION
  OBS#     NAME       LAY  ROW  COL  OFFSET  OFFSET   (IF > 0)
     1  obs1_01         1    5    5   0.000   0.000        0
     2  obs1_02         1    5   31   0.000   0.000        0
     3  obs1_03         1   16    8   0.000   0.000        0
     4  obs1_04         1   17   26   0.000   0.000        0
     5  obs1_05         1   35    5   0.000   0.000        0
     6  obs1_06         1   37   31   0.000   0.000        0
     7  obs1_07         1   23   17   0.000   0.000        0
     8  obs1_08         1    6   20   0.000   0.000        0
     9  obs1_09         1   25    5   0.000   0.000        0
    10  obs1_10         1   27   26   0.000   0.000        0
    11  obs1_11         1   38   17   0.000   0.000        0
    12  obs1_12         1   13   18   0.000   0.000        0
    13  obs2_01         2    5    5   0.000   0.000        0
    14  obs2_02         2    5   31   0.000   0.000        0
    15  obs2_03         2   16    8   0.000   0.000        0
    16  obs2_04         2   17   26   0.000   0.000        0
    17  obs2_05         2   35    5   0.000   0.000        0
    18  obs2_06         2   37   31   0.000   0.000        0
    19  obs2_07         2   23   17   0.000   0.000        0
    20  obs2_08         2    6   20   0.000   0.000        0
    21  obs2_09         2   25    5   0.000   0.000        0
    22  obs2_10         2   27   26   0.000   0.000        0
    23  obs2_11         2   38   17   0.000   0.000        0
    24  obs2_12         2   13   18   0.000   0.000        0
    25  obs3_01         3    5    5   0.000   0.000        0
    26  obs3_02         3    5   31   0.000   0.000        0
    27  obs3_03         3   16    8   0.000   0.000        0
    28  obs3_04         3   17   26   0.000   0.000        0
    29  obs3_05         3   35    5   0.000   0.000        0
    30  obs3_06         3   37   31   0.000   0.000        0
    31  obs3_07         3   23   17   0.000   0.000        0
    32  obs3_08         3    6   20   0.000   0.000        0
    33  obs3_09         3   25    5   0.000   0.000        0
    34  obs3_10         3   27   26   0.000   0.000        0
    35  obs3_11         3   38   17   0.000   0.000        0
    36  obs3_12         3   13   18   0.000   0.000        0

 ADJ -- ADJOINT STATE SENSITIVITY PACKAGE, VERSION -- PRE-RELEASE
        INPUT READ FROM UNIT   35
 # Modflow 2005 ADJ File Input Adjoint MD
 USING OBSERVATION BASED ADJOINT STATE MODE
SENSITIVITY OUTPUT FILE CONTROL INFORMATION -   44  12   0   0
 Adjoint state solver information  read from unit 75
 PCG -- CONJUGATE-GRADIENT SOLUTION PACKAGE, VERSION 7, 5/2/2005
 MAXIMUM OF   1000 CALLS OF SOLUTION ROUTINE
 MAXIMUM OF     40 INTERNAL ITERATIONS PER CALL TO SOLUTION ROUTINE
 MATRIX PRECONDITIONING TYPE :    1



                                    SOLUTION BY THE CONJUGATE-GRADIENT METHOD
                                   -------------------------------------------
                    MAXIMUM NUMBER OF CALLS TO PCG ROUTINE =     1000
                        MAXIMUM ITERATIONS PER CALL TO PCG =       40
                               MATRIX PRECONDITIONING TYPE =        1
        RELAXATION FACTOR (ONLY USED WITH PRECOND. TYPE 1) =    0.10000E+01
 PARAMETER OF POLYNOMIAL PRECOND. = 2 (2) OR IS CALCULATED :        2
                         HEAD CHANGE CRITERION FOR CLOSURE =    0.10000E-04
                     RESIDUAL CHANGE CRITERION FOR CLOSURE =    0.10000E-04
            PCG HEAD AND RESIDUAL CHANGE PRINTOUT INTERVAL =        5
     PRINTING FROM SOLVER IS LIMITED(1) OR SUPPRESSED (>1) =        0
                                         DAMPING PARAMETER =    0.10000E+01

 NUMBER OF PARAMETERS READ FROM ADJ FILE:    1
 NUMBER OF DISTRIBUTED PARAMETERS 4200
DISTRIBUTED PARAMETER SENSITIVITIES WRITTEN TO UNIT  48 USING OUTPUT FORMAT   1
RELATIVE SENSITIVITY CUTOFF =   0.000    
DISTRIBUTED PARAMETERS ARE PARAMETERS:
   1   1   1   1   1   1   1   1   1   1
DISTRIBUTED PARAMETERS ARE PARAMETERS:
   1   1   1   1   1   1   1   1   1   1
DISTRIBUTED PARAMETERS ARE PARAMETERS:
   1   1   1   1   1   1   1   1   1   1
DISTRIBUTED PARAMETERS ARE PARAMETERS:
   1   1   1   1   1   1   1   1   1   1
DISTRIBUTED PARAMETERS ARE PARAMETERS:
   1   1   1   1   1   1   1   1   1   1
DISTRIBUTED PARAMETERS ARE PARAMETERS:
   1   1   1   1   1   1   1   1   1   1
DISTRIBUTED PARAMETERS ARE PARAMETERS:
   1   1   1   1   1   1   1   1   1   1
DISTRIBUTED PARAMETERS ARE PARAMETERS:
   1   1   1   1   1   1   1   1   1   1
DISTRIBUTED PARAMETERS ARE PARAMETERS:
   1   1   1   1   1   1   1   1   1   1
DISTRIBUTED PARAMETERS ARE PARAMETERS:
   1   1   1   1   1   1   1   1   1   1
DISTRIBUTED PARAMETERS ARE PARAMETERS:
   1   1   1   1   1   1   1   1   1   1
DISTRIBUTED PARAMETERS ARE PARAMETERS:
   1   1   1   1   1   1   1   1   1   1
DISTRIBUTED PARAMETERS ARE PARAMETERS:
   1   1   1   1   1   1   1   1   1   1
DISTRIBUTED PARAMETERS ARE PARAMETERS:
   1   1   1   1   1   1   1   1   1   1
DISTRIBUTED PARAMETERS ARE PARAMETERS:
   1   1   1   1   1   1   1   1   1   1
DISTRIBUTED PARAMETERS ARE PARAMETERS:
   1   1   1   1   1   1   1   1   1   1
DISTRIBUTED PARAMETERS ARE PARAMETERS:
   1   1   1   1   1   1   1   1   1   1
DISTRIBUTED PARAMETERS ARE PARAMETERS:
   1   1   1   1   1   1   1   1   1   1
DISTRIBUTED PARAMETERS ARE PARAMETERS:
   1   1   1   1   1   1   1   1   1   1
DISTRIBUTED PARAMETERS ARE PARAMETERS:
   1   1   1   1   1   1   1   1   1   1
DISTRIBUTED PARAMETERS ARE PARAMETERS:
   1   1   1   1   1   1   1   1   1   1
DISTRIBUTED PARAMETERS ARE PARAMETERS:
   1   1   1   1   1   1   1   1   1   1
DISTRIBUTED PARAMETERS ARE PARAMETERS:
   1   1   1   1   1   1   1   1   1   1
DISTRIBUTED PARAMETERS ARE PARAMETERS:
   1   1   1   1   1   1   1   1   1   1
DISTRIBUTED PARAMETERS ARE PARAMETERS:
   1   1   1   1   1   1   1   1   1   1
DISTRIBUTED PARAMETERS ARE PARAMETERS:
   1   1   1   1   1   1   1   1   1   1
DISTRIBUTED PARAMETERS ARE PARAMETERS:
   1   1   1   1   1   1   1   1   1   1
DISTRIBUTED PARAMETERS ARE PARAMETERS:
   1   1   1   1   1   1   1   1   1   1
DISTRIBUTED PARAMETERS ARE PARAMETERS:
   1   1   1   1   1   1   1   1   1   1
DISTRIBUTED PARAMETERS ARE PARAMETERS:
   1   1   1   1   1   1   1   1   1   1
DISTRIBUTED PARAMETERS ARE PARAMETERS:
   1   1   1   1   1   1   1   1   1   1
DISTRIBUTED PARAMETERS ARE PARAMETERS:
   1   1   1   1   1   1   1   1   1   1
DISTRIBUTED PARAMETERS ARE PARAMETERS:
   1   1   1   1   1   1   1   1   1   1
DISTRIBUTED PARAMETERS ARE PARAMETERS:
   1   1   1   1   1   1   1   1   1   1
DISTRIBUTED PARAMETERS ARE PARAMETERS:
   1   1   1   1   1   1   1   1   1   1
DISTRIBUTED PARAMETERS ARE PARAMETERS:
   1   1   1   1   1   1   1   1   1   1
DISTRIBUTED PARAMETERS ARE PARAMETERS:
   1   1   1   1   1   1   1   1   1   1
DISTRIBUTED PARAMETERS ARE PARAMETERS:
   1   1   1   1   1   1   1   1   1   1
DISTRIBUTED PARAMETERS ARE PARAMETERS:
   1   1   1   1   1   1   1   1   1   1
DISTRIBUTED PARAMETERS ARE PARAMETERS:
   1   1   1   1   1   1   1   1   1   1
DISTRIBUTED PARAMETERS ARE PARAMETERS:
   1   1   1   1   1   1   1   1   1   1
DISTRIBUTED PARAMETERS ARE PARAMETERS:
   1   1   1   1   1   1   1   1   1   1
DISTRIBUTED PARAMETERS ARE PARAMETERS:
   1   1   1   1   1   1   1   1   1   1
DISTRIBUTED PARAMETERS ARE PARAMETERS:
   1   1   1   1   1   1   1   1   1   1
DISTRIBUTED PARAMETERS ARE PARAMETERS:
   1   1   1   1   1   1   1   1   1   1
DISTRIBUTED PARAMETERS ARE PARAMETERS:
   1   1   1   1   1   1   1   1   1   1
DISTRIBUTED PARAMETERS ARE PARAMETERS:
   1   1   1   1   1   1   1   1   1   1
DISTRIBUTED PARAMETERS ARE PARAMETERS:
   1   1   1   1   1   1   1   1   1   1
DISTRIBUTED PARAMETERS ARE PARAMETERS:
   1   1   1   1   1   1   1   1   1   1
DISTRIBUTED PARAMETERS ARE PARAMETERS:
   1   1   1   1   1   1   1   1   1   1
DISTRIBUTED PARAMETERS ARE PARAMETERS:
   1   1   1   1   1   1   1   1   1   1
DISTRIBUTED PARAMETERS ARE PARAMETERS:
   1   1   1   1   1   1   1   1   1   1
DISTRIBUTED PARAMETERS ARE PARAMETERS:
   1   1   1   1   1   1   1   1   1   1
DISTRIBUTED PARAMETERS ARE PARAMETERS:
   1   1   1   1   1   1   1   1   1   1
DISTRIBUTED PARAMETERS ARE PARAMETERS:
   1   1   1   1   1   1   1   1   1   1
DISTRIBUTED PARAMETERS ARE PARAMETERS:
   1   1   1   1   1   1   1   1   1   1
DISTRIBUTED PARAMETERS ARE PARAMETERS:
   1   1   1   1   1   1   1   1   1   1
DISTRIBUTED PARAMETERS ARE PARAMETERS:
   1   1   1   1   1   1   1   1   1   1
DISTRIBUTED PARAMETERS ARE PARAMETERS:
   1   1   1   1   1   1   1   1   1   1
DISTRIBUTED PARAMETERS ARE PARAMETERS:
   1   1   1   1   1   1   1   1   1   1
DISTRIBUTED PARAMETERS ARE PARAMETERS:
   1   1   1   1   1   1   1   1   1   1
DISTRIBUTED PARAMETERS ARE PARAMETERS:
   1   1   1   1   1   1   1   1   1   1
DISTRIBUTED PARAMETERS ARE PARAMETERS:
   1   1   1   1   1   1   1   1   1   1
DISTRIBUTED PARAMETERS ARE PARAMETERS:
   1   1   1   1   1   1   1   1   1   1
DISTRIBUTED PARAMETERS ARE PARAMETERS:
   1   1   1   1   1   1   1   1   1   1
DISTRIBUTED PARAMETERS ARE PARAMETERS:
   1   1   1   1   1   1   1   1   1   1
DISTRIBUTED PARAMETERS ARE PARAMETERS:
   1   1   1   1   1   1   1   1   1   1
DISTRIBUTED PARAMETERS ARE PARAMETERS:
   1   1   1   1   1   1   1   1   1   1
DISTRIBUTED PARAMETERS ARE PARAMETERS:
   1   1   1   1   1   1   1   1   1   1
DISTRIBUTED PARAMETERS ARE PARAMETERS:
   1   1   1   1   1   1   1   1   1   1
DISTRIBUTED PARAMETERS ARE PARAMETERS:
   1   1   1   1   1   1   1   1   1   1
DISTRIBUTED PARAMETERS ARE PARAMETERS:
   1   1   1   1   1   1   1   1   1   1
DISTRIBUTED PARAMETERS ARE PARAMETERS:
   1   1   1   1   1   1   1   1   1   1
DISTRIBUTED PARAMETERS ARE PARAMETERS:
   1   1   1   1   1   1   1   1   1   1
DISTRIBUTED PARAMETERS ARE PARAMETERS:
   1   1   1   1   1   1   1   1   1   1
DISTRIBUTED PARAMETERS ARE PARAMETERS:
   1   1   1   1   1   1   1   1   1   1
DISTRIBUTED PARAMETERS ARE PARAMETERS:
   1   1   1   1   1   1   1   1   1   1
DISTRIBUTED PARAMETERS ARE PARAMETERS:
   1   1   1   1   1   1   1   1   1   1
DISTRIBUTED PARAMETERS ARE PARAMETERS:
   1   1   1   1   1   1   1   1   1   1
DISTRIBUTED PARAMETERS ARE PARAMETERS:
   1   1   1   1   1   1   1   1   1   1
DISTRIBUTED PARAMETERS ARE PARAMETERS:
   1   1   1   1   1   1   1   1   1   1
DISTRIBUTED PARAMETERS ARE PARAMETERS:
   1   1   1   1   1   1   1   1   1   1
DISTRIBUTED PARAMETERS ARE PARAMETERS:
   1   1   1   1   1   1   1   1   1   1
DISTRIBUTED PARAMETERS ARE PARAMETERS:
   1   1   1   1   1   1   1   1   1   1
DISTRIBUTED PARAMETERS ARE PARAMETERS:
   1   1   1   1   1   1   1   1   1   1
DISTRIBUTED PARAMETERS ARE PARAMETERS:
   1   1   1   1   1   1   1   1   1   1
DISTRIBUTED PARAMETERS ARE PARAMETERS:
   1   1   1   1   1   1   1   1   1   1
DISTRIBUTED PARAMETERS ARE PARAMETERS:
   1   1   1   1   1   1   1   1   1   1
DISTRIBUTED PARAMETERS ARE PARAMETERS:
   1   1   1   1   1   1   1   1   1   1
DISTRIBUTED PARAMETERS ARE PARAMETERS:
   1   1   1   1   1   1   1   1   1   1
DISTRIBUTED PARAMETERS ARE PARAMETERS:
   1   1   1   1   1   1   1   1   1   1
DISTRIBUTED PARAMETERS ARE PARAMETERS:
   1   1   1   1   1   1   1   1   1   1
DISTRIBUTED PARAMETERS ARE PARAMETERS:
   1   1   1   1   1   1   1   1   1   1
DISTRIBUTED PARAMETERS ARE PARAMETERS:
   1   1   1   1   1   1   1   1   1   1
DISTRIBUTED PARAMETERS ARE PARAMETERS:
   1   1   1   1   1   1   1   1   1   1
DISTRIBUTED PARAMETERS ARE PARAMETERS:
   1   1   1   1   1   1   1   1   1   1
DISTRIBUTED PARAMETERS ARE PARAMETERS:
   1   1   1   1   1   1   1   1   1   1
DISTRIBUTED PARAMETERS ARE PARAMETERS:
   1   1   1   1   1   1   1   1   1   1
DISTRIBUTED PARAMETERS ARE PARAMETERS:
   1   1   1   1   1   1   1   1   1   1
DISTRIBUTED PARAMETERS ARE PARAMETERS:
   1   1   1   1   1   1   1   1   1   1
DISTRIBUTED PARAMETERS ARE PARAMETERS:
   1   1   1   1   1   1   1   1   1   1
DISTRIBUTED PARAMETERS ARE PARAMETERS:
   1   1   1   1   1   1   1   1   1   1
DISTRIBUTED PARAMETERS ARE PARAMETERS:
   1   1   1   1   1   1   1   1   1   1
DISTRIBUTED PARAMETERS ARE PARAMETERS:
   1   1   1   1   1   1   1   1   1   1
DISTRIBUTED PARAMETERS ARE PARAMETERS:
   1   1   1   1   1   1   1   1   1   1
DISTRIBUTED PARAMETERS ARE PARAMETERS:
   1   1   1   1   1   1   1   1   1   1
DISTRIBUTED PARAMETERS ARE PARAMETERS:
   1   1   1   1   1   1   1   1   1   1
DISTRIBUTED PARAMETERS ARE PARAMETERS:
   1   1   1   1   1   1   1   1   1   1
DISTRIBUTED PARAMETERS ARE PARAMETERS:
   1   1   1   1   1   1   1   1   1   1
DISTRIBUTED PARAMETERS ARE PARAMETERS:
   1   1   1   1   1   1   1   1   1   1
DISTRIBUTED PARAMETERS ARE PARAMETERS:
   1   1   1   1   1   1   1   1   1   1
DISTRIBUTED PARAMETERS ARE PARAMETERS:
[...]
  0 -0.8919E-02  0 -0.4831E-02  0 -0.3033E-02  0 -0.2098E-02  0 -0.1437E-02
   (  3, 22, 18)  (  3, 24, 16)  (  3, 24, 16)  (  3, 21, 19)  (  3, 21, 19)
  0 -0.8585E-03  0 -0.6548E-03  0 -0.3901E-03  0 -0.2559E-03  0 -0.1419E-03
   (  3, 21, 19)  (  3, 21, 19)  (  3, 21, 19)  (  3, 21, 19)  (  3, 21, 19)
  0 -0.7892E-04  0 -0.4321E-04  0 -0.2358E-04  0 -0.1488E-04  0 -0.1220E-04
   (  3, 21, 19)  (  3, 21, 19)  (  3, 26, 14)  (  3, 20, 20)  (  3, 20, 20)
  0 -0.8896E-05  0 -0.5669E-05  0 -0.3489E-05  0 -0.1644E-05  0 -0.9381E-06
   (  3, 20, 20)  (  3, 20, 20)  (  3, 20, 20)  (  3, 20, 20)  (  3, 26, 14)
  0 -0.6807E-06  0 -0.4263E-06  0 -0.2814E-06  0 -0.1912E-06  0 -0.1349E-06
   (  3, 26, 14)  (  3, 19, 21)  (  3, 19, 21)  (  3, 19, 21)  (  3, 19, 21)
  0 -0.8813E-07  0 -0.5789E-07  0 -0.3611E-07  1 -0.3070E-07
   (  3, 19, 21)  (  3, 19, 21)  (  3, 19, 21)  (  3, 19, 21)


 SUM OF POSITIVE RATES= 1.00000E+00    SUM OF NEGATIVE RATES= 1.00000E+00
               PERCENT DISCREPANCY=-2.93E-06
        SENSITIVITY CALCULATION FOR GLOBAL OBSERVATION 31 obs3_07     


     2 CALLS TO PCG ROUTINE FOR TIME STEP   1 IN STRESS PERIOD    1
    39 TOTAL ITERATIONS

 MAXIMUM HEAD CHANGE FOR EACH ITERATION (1 INDICATES THE FIRST INNER ITERATION):

    HEAD CHANGE    HEAD CHANGE    HEAD CHANGE    HEAD CHANGE    HEAD CHANGE 
   LAYER,ROW,COL  LAYER,ROW,COL  LAYER,ROW,COL  LAYER,ROW,COL  LAYER,ROW,COL
 ---------------------------------------------------------------------------
  1   172.9      0   98.75      0   59.20      0   30.39      0  -20.60    
   (  3,  6, 20)  (  3,  6, 20)  (  3,  6, 20)  (  3,  6, 20)  (  2, 26, 24)
  0  -12.14      0   7.514      0  -4.626      0   3.884      0  -2.774    
   (  3,  1, 11)  (  3, 10, 16)  (  3,  1, 13)  (  2, 38, 25)  (  2, 29, 21)
  0  -1.549      0   1.635      0 -0.6885      0  0.4064      0 -0.1503    
   (  2, 17, 24)  (  2,  7, 20)  (  2, 14, 23)  (  3, 31, 20)  (  1, 19, 22)
  0 -0.1790      0 -0.8539E-01  0 -0.4955E-01  0 -0.4192E-01  0 -0.2574E-01
   (  3, 24, 16)  (  3,  1, 22)  (  3,  1, 22)  (  3,  7, 14)  (  3, 40, 26)
  0  0.2545E-01  0 -0.1502E-01  0  0.7777E-02  0 -0.5915E-02  0  0.5017E-02
   (  3, 28, 16)  (  3, 35, 19)  (  3, 31, 14)  (  2, 20, 21)  (  2, 25, 23)
  0  0.3234E-02  0 -0.1992E-02  0  0.7921E-03  0 -0.5470E-03  0 -0.3500E-03
   (  2, 13, 27)  (  2, 10, 25)  (  3, 26, 13)  (  3, 39, 20)  (  2, 31, 16)
  0  0.1557E-03  0  0.8715E-04  0 -0.5275E-04  0 -0.3393E-04  0  0.2954E-04
   (  2, 28, 15)  (  3,  3, 23)  (  2, 34, 20)  (  3, 12, 16)  (  2, 32, 18)
  0  0.2168E-04  0 -0.1313E-04  0  0.9019E-05  1 -0.4336E-05
   (  3,  4, 14)  (  2, 16, 21)  (  3,  9, 10)  (  3, 27, 20)

 MAXIMUM RESIDUAL FOR EACH ITERATION (1 INDICATES THE FIRST INNER ITERATION):

    RESIDUAL       RESIDUAL       RESIDUAL       RESIDUAL       RESIDUAL    
   LAYER,ROW,COL  LAYER,ROW,COL  LAYER,ROW,COL  LAYER,ROW,COL  LAYER,ROW,COL
 ---------------------------------------------------------------------------
  1 -0.8059      0 -0.5624      0 -0.3365      0 -0.1822      0 -0.9853E-01
   (  3,  6, 20)  (  3,  6, 20)  (  3,  6, 20)  (  3,  6, 20)  (  3,  6, 20)
  0 -0.6825E-01  0 -0.5449E-01  0 -0.3334E-01  0 -0.2033E-01  0 -0.1245E-01
   (  3,  5, 21)  (  3,  5, 21)  (  3,  5, 21)  (  3,  7, 19)  (  3,  7, 19)
  0 -0.7576E-02  0 -0.4332E-02  0 -0.2581E-02  0 -0.1770E-02  0 -0.1309E-02
   (  3,  7, 19)  (  3,  5, 21)  (  3,  8, 18)  (  3,  8, 18)  (  3,  8, 18)
  0 -0.8523E-03  0 -0.5568E-03  0 -0.4033E-03  0 -0.2488E-03  0 -0.1620E-03
   (  3,  8, 18)  (  3,  8, 18)  (  3,  8, 18)  (  3,  4, 22)  (  3,  4, 22)
  0 -0.9309E-04  0 -0.4462E-04  0 -0.2443E-04  0 -0.1675E-04  0 -0.1257E-04
   (  3,  4, 22)  (  3,  4, 22)  (  3,  9, 17)  (  3,  9, 17)  (  3,  3, 23)
  0 -0.8657E-05  0 -0.5823E-05  0 -0.3183E-05  0 -0.1693E-05  0 -0.8986E-06
   (  3,  3, 23)  (  3,  3, 23)  (  3,  3, 23)  (  3,  3, 23)  (  3,  3, 23)
  0 -0.5942E-06  0 -0.3896E-06  0 -0.2727E-06  0 -0.1930E-06  0 -0.1217E-06
   (  3,  2, 24)  (  3,  2, 24)  (  3,  2, 24)  (  3,  2, 24)  (  3,  2, 24)
  0 -0.7956E-07  0 -0.4774E-07  0  0.2655E-07  1  0.3805E-07
   (  3,  2, 24)  (  3,  2, 24)  (  3,  1, 24)  (  3,  6, 20)


 SUM OF POSITIVE RATES= 1.00000E+00    SUM OF NEGATIVE RATES= 1.00000E+00
               PERCENT DISCREPANCY= 6.99E-06
        SENSITIVITY CALCULATION FOR GLOBAL OBSERVATION 32 obs3_08     


     2 CALLS TO PCG ROUTINE FOR TIME STEP   1 IN STRESS PERIOD    1
    38 TOTAL ITERATIONS

 MAXIMUM HEAD CHANGE FOR EACH ITERATION (1 INDICATES THE FIRST INNER ITERATION):

    HEAD CHANGE    HEAD CHANGE    HEAD CHANGE    HEAD CHANGE    HEAD CHANGE 
   LAYER,ROW,COL  LAYER,ROW,COL  LAYER,ROW,COL  LAYER,ROW,COL  LAYER,ROW,COL
 ---------------------------------------------------------------------------
  1   264.5      0   53.69      0  -22.92      0  -15.60      0  -10.23    
   (  3, 25,  5)  (  3, 25,  5)  (  3, 40, 27)  (  3, 36, 20)  (  2, 26, 24)
  0   7.110      0   4.343      0   2.829      0  -2.050      0  -1.217    
   (  2, 15, 20)  (  3, 37, 18)  (  2, 11, 22)  (  2, 14, 24)  (  3,  3, 15)
  0  0.6396      0 -0.4269      0  0.2721      0  0.2443      0  0.1147    
   (  2, 39, 25)  (  2,  9, 24)  (  3, 31, 21)  (  2, 32, 19)  (  2, 23, 27)
  0 -0.1080      0  0.8329E-01  0  0.3972E-01  0  0.2366E-01  0  0.2092E-01
   (  2, 14, 24)  (  2,  9, 25)  (  3,  5, 21)  (  2, 28, 22)  (  2, 18, 25)
  0  0.1857E-01  0 -0.9408E-02  0 -0.4260E-02  0  0.3023E-02  0 -0.2403E-02
   (  2, 36, 19)  (  2, 33, 17)  (  3, 16, 24)  (  2,  7, 24)  (  2, 10, 28)
  0  0.1277E-02  0 -0.8584E-03  0  0.6718E-03  0 -0.4544E-03  0  0.1940E-03
   (  2,  5, 27)  (  2, 17, 21)  (  2, 23, 22)  (  2, 35, 15)  (  2,  8, 30)
  0 -0.1230E-03  0 -0.8711E-04  0 -0.2939E-04  0  0.1503E-04  0  0.1393E-04
   (  2, 29, 17)  (  2,  7, 29)  (  2, 33, 12)  (  2,  4, 28)  (  2, 37, 12)
  0 -0.1431E-04  0  0.5960E-05  1 -0.4527E-05
   (  2,  7, 29)  (  3, 14, 16)  (  3, 22, 20)

 MAXIMUM RESIDUAL FOR EACH ITERATION (1 INDICATES THE FIRST INNER ITERATION):

    RESIDUAL       RESIDUAL       RESIDUAL       RESIDUAL       RESIDUAL    
   LAYER,ROW,COL  LAYER,ROW,COL  LAYER,ROW,COL  LAYER,ROW,COL  LAYER,ROW,COL
 ---------------------------------------------------------------------------
  1 -0.4140      0 -0.1998      0 -0.1178      0 -0.6422E-01  0 -0.5057E-01
   (  3, 25,  5)  (  3, 25,  5)  (  3, 25,  5)  (  3, 24,  6)  (  3, 24,  6)
  0 -0.3890E-01  0 -0.2601E-01  0 -0.1555E-01  0 -0.1006E-01  0 -0.5961E-02
   (  3, 24,  6)  (  3, 24,  6)  (  3, 26,  4)  (  3, 26,  4)  (  3, 26,  4)
  0 -0.3859E-02  0 -0.2106E-02  0 -0.1522E-02  0 -0.1007E-02  0 -0.7563E-03
   (  3, 26,  4)  (  3, 26,  4)  (  3, 23,  7)  (  3, 23,  7)  (  3, 27,  3)
  0 -0.5762E-03  0 -0.4061E-03  0 -0.2548E-03  0 -0.1847E-03  0 -0.1227E-03
   (  3, 27,  3)  (  3, 27,  3)  (  3, 27,  3)  (  3, 27,  3)  (  3, 27,  3)
  0 -0.6923E-04  0 -0.3929E-04  0 -0.1883E-04  0 -0.1139E-04  0 -0.6890E-05
   (  3, 27,  3)  (  3, 27,  3)  (  3, 27,  3)  (  3, 28,  2)  (  3, 28,  2)
  0 -0.4135E-05  0 -0.2629E-05  0 -0.2010E-05  0  0.1167E-05  0  0.7241E-06
   (  3, 28,  2)  (  3, 28,  2)  (  3, 28,  2)  (  3, 27,  2)  (  3, 27,  2)
  0  0.4796E-06  0  0.2797E-06  0  0.1531E-06  0  0.1120E-06  0  0.6599E-07
   (  3, 27,  2)  (  3, 27,  2)  (  3, 27,  2)  (  3, 27,  2)  (  3, 27,  2)
  0  0.3729E-07  0  0.2422E-07  1  0.2266E-07
   (  3, 29,  2)  (  3, 29,  2)  (  3, 29,  2)


 SUM OF POSITIVE RATES= 1.00000E+00    SUM OF NEGATIVE RATES= 1.00000E+00
               PERCENT DISCREPANCY=-1.39E-06
        SENSITIVITY CALCULATION FOR GLOBAL OBSERVATION 33 obs3_09     


     2 CALLS TO PCG ROUTINE FOR TIME STEP   1 IN STRESS PERIOD    1
    39 TOTAL ITERATIONS

 MAXIMUM HEAD CHANGE FOR EACH ITERATION (1 INDICATES THE FIRST INNER ITERATION):

    HEAD CHANGE    HEAD CHANGE    HEAD CHANGE    HEAD CHANGE    HEAD CHANGE 
   LAYER,ROW,COL  LAYER,ROW,COL  LAYER,ROW,COL  LAYER,ROW,COL  LAYER,ROW,COL
 ---------------------------------------------------------------------------
  1   112.8      0   109.9      0   53.97      0   19.71      0  -18.51    
   (  3, 27, 26)  (  3, 27, 26)  (  3, 27, 26)  (  2, 27, 25)  (  2, 18, 20)
  0   11.62      0  -8.340      0   4.517      0   1.878      0  -1.865    
   (  2, 26, 24)  (  3, 40, 27)  (  3, 32, 23)  (  3, 28, 25)  (  3, 26, 20)
  0   1.624      0  -1.057      0 -0.8594      0  0.6160      0 -0.2255    
   (  2, 34, 22)  (  2, 27, 19)  (  2, 17, 25)  (  2, 12, 24)  (  3, 30, 14)
  0 -0.1377      0  0.9339E-01  0  0.8631E-01  0 -0.6918E-01  0 -0.2388E-01
   (  3, 36, 23)  (  2, 13, 23)  (  3, 40, 25)  (  3, 38, 21)  (  2, 40, 22)
  0  0.1542E-01  0 -0.1259E-01  0 -0.6932E-02  0  0.6292E-02  0 -0.3938E-02
   (  3, 40, 27)  (  3, 38, 22)  (  2, 39, 21)  (  2, 21, 22)  (  2, 26, 23)
  0 -0.2053E-02  0  0.9931E-03  0  0.6544E-03  0 -0.5361E-03  0  0.2847E-03
   (  2, 31, 17)  (  2, 36, 20)  (  2,  9, 23)  (  2, 12, 26)  (  2, 13, 28)
  0  0.1632E-03  0 -0.1036E-03  0  0.7029E-04  0 -0.3535E-04  0 -0.2310E-04
   (  3, 39, 24)  (  3, 31, 23)  (  2,  5, 24)  (  3, 12, 17)  (  2, 28, 28)
  0  0.1488E-04  0 -0.1037E-04  0  0.5923E-05  1 -0.4409E-05
   (  2, 20, 24)  (  2, 12, 20)  (  2, 31, 14)  (  3, 31, 26)

 MAXIMUM RESIDUAL FOR EACH ITERATION (1 INDICATES THE FIRST INNER ITERATION):

    RESIDUAL       RESIDUAL       RESIDUAL       RESIDUAL       RESIDUAL    
   LAYER,ROW,COL  LAYER,ROW,COL  LAYER,ROW,COL  LAYER,ROW,COL  LAYER,ROW,COL
 ---------------------------------------------------------------------------
  1 -0.8551      0 -0.5358      0 -0.2925      0 -0.1823      0 -0.9512E-01
   (  3, 27, 26)  (  3, 27, 26)  (  3, 27, 26)  (  3, 27, 26)  (  3, 27, 26)
  0 -0.6831E-01  0 -0.4805E-01  0 -0.3232E-01  0 -0.2283E-01  0 -0.1342E-01
   (  3, 26, 27)  (  3, 28, 25)  (  3, 28, 25)  (  3, 28, 25)  (  3, 26, 27)
  0 -0.8084E-02  0 -0.4871E-02  0 -0.2883E-02  0 -0.2021E-02  0 -0.1257E-02
   (  3, 26, 27)  (  3, 28, 25)  (  3, 28, 25)  (  3, 29, 24)  (  3, 29, 24)
  0 -0.9109E-03  0 -0.6208E-03  0 -0.3975E-03  0 -0.2303E-03  0 -0.1310E-03
   (  3, 29, 24)  (  3, 25, 28)  (  3, 29, 24)  (  3, 29, 24)  (  3, 29, 24)
  0 -0.7749E-04  0 -0.3828E-04  0 -0.2478E-04  0 -0.1814E-04  0 -0.1275E-04
   (  3, 29, 24)  (  3, 29, 24)  (  3, 30, 23)  (  3, 30, 23)  (  3, 24, 29)
  0 -0.8708E-05  0 -0.5141E-05  0 -0.2884E-05  0 -0.1641E-05  0 -0.8052E-06
   (  3, 24, 29)  (  3, 30, 23)  (  3, 30, 23)  (  3, 30, 23)  (  3, 31, 22)
  0 -0.6225E-06  0 -0.4747E-06  0 -0.3066E-06  0 -0.2302E-06  0 -0.1131E-06
   (  3, 31, 22)  (  3, 31, 22)  (  3, 31, 22)  (  3, 31, 22)  (  3, 31, 22)
  0 -0.8396E-07  0 -0.4956E-07  0 -0.2691E-07  1 -0.2406E-07
   (  3, 23, 30)  (  3, 23, 30)  (  3, 31, 22)  (  3, 31, 22)


 SUM OF POSITIVE RATES= 1.00000E+00    SUM OF NEGATIVE RATES= 1.00000E+00
               PERCENT DISCREPANCY=-5.54E-06
        SENSITIVITY CALCULATION FOR GLOBAL OBSERVATION 34 obs3_10     


     2 CALLS TO PCG ROUTINE FOR TIME STEP   1 IN STRESS PERIOD    1
    40 TOTAL ITERATIONS

 MAXIMUM HEAD CHANGE FOR EACH ITERATION (1 INDICATES THE FIRST INNER ITERATION):

    HEAD CHANGE    HEAD CHANGE    HEAD CHANGE    HEAD CHANGE    HEAD CHANGE 
   LAYER,ROW,COL  LAYER,ROW,COL  LAYER,ROW,COL  LAYER,ROW,COL  LAYER,ROW,COL
 ---------------------------------------------------------------------------
  1   300.8      0   104.6      0   47.54      0   26.20      0  -16.26    
   (  3, 38, 17)  (  3, 38, 17)  (  3, 38, 17)  (  3, 38, 17)  (  2, 17, 20)
  0  -10.33      0   7.856      0  -5.918      0   2.823      0  -2.322    
   (  3, 34,  9)  (  3, 40, 16)  (  3, 40, 27)  (  3, 37, 18)  (  2, 26, 19)
  0  0.9594      0  0.5313      0 -0.7431      0  0.5044      0  0.2985    
   (  2, 36, 20)  (  3, 32, 22)  (  2, 13, 26)  (  2,  5, 23)  (  2, 13, 21)
  0 -0.2387      0 -0.1249      0  0.7322E-01  0 -0.5035E-01  0 -0.4786E-01
   (  2,  9, 23)  (  3, 32, 17)  (  2, 36, 20)  (  2, 15, 23)  (  2, 33, 18)
  0  0.2497E-01  0 -0.1207E-01  0  0.8832E-02  0  0.6824E-02  0  0.4882E-02
   (  2,  7, 27)  (  2, 11, 29)  (  3,  5, 23)  (  2,  7, 26)  (  2, 21, 21)
  0 -0.3592E-02  0 -0.2117E-02  0  0.1039E-02  0 -0.3214E-03  0 -0.2034E-03
   (  2, 24, 25)  (  2, 37, 16)  (  2, 33, 15)  (  2, 35, 17)  (  2, 36, 17)
  0  0.1789E-03  0 -0.1110E-03  0 -0.5691E-04  0  0.2355E-04  0  0.2856E-04
   (  2, 38, 18)  (  3,  4, 25)  (  3, 30, 22)  (  3, 40, 27)  (  2,  4, 23)
  0  0.1544E-04  0  0.1222E-04  0 -0.1087E-04  0  0.6016E-05  1 -0.4233E-05
   (  2, 38, 29)  (  3, 26, 20)  (  3, 28, 23)  (  3, 20, 21)  (  3, 13, 19)

 MAXIMUM RESIDUAL FOR EACH ITERATION (1 INDICATES THE FIRST INNER ITERATION):

    RESIDUAL       RESIDUAL       RESIDUAL       RESIDUAL       RESIDUAL    
   LAYER,ROW,COL  LAYER,ROW,COL  LAYER,ROW,COL  LAYER,ROW,COL  LAYER,ROW,COL
 ---------------------------------------------------------------------------
  1 -0.6805      0 -0.4223      0 -0.2650      0 -0.1533      0 -0.8352E-01
   (  3, 38, 17)  (  3, 38, 17)  (  3, 38, 17)  (  3, 38, 17)  (  3, 38, 17)
  0 -0.6261E-01  0 -0.4499E-01  0 -0.3099E-01  0 -0.1863E-01  0 -0.1251E-01
   (  3, 37, 18)  (  3, 37, 18)  (  3, 37, 18)  (  3, 37, 18)  (  3, 39, 16)
  0 -0.7692E-02  0 -0.5134E-02  0  0.2967E-02  0  0.1957E-02  0 -0.1210E-02
   (  3, 39, 16)  (  3, 39, 16)  (  3, 40, 16)  (  3, 40, 16)  (  3, 36, 19)
  0 -0.8332E-03  0 -0.5190E-03  0 -0.3650E-03  0 -0.2598E-03  0 -0.1521E-03
   (  3, 40, 15)  (  3, 40, 15)  (  3, 40, 15)  (  3, 40, 15)  (  3, 40, 15)
  0 -0.8644E-04  0 -0.5388E-04  0 -0.3330E-04  0 -0.1769E-04  0 -0.1149E-04
   (  3, 40, 15)  (  3, 36, 19)  (  3, 36, 19)  (  3, 36, 19)  (  3, 36, 19)
  0 -0.7979E-05  0 -0.5395E-05  0 -0.3322E-05  0 -0.1870E-05  0 -0.1124E-05
   (  3, 35, 20)  (  3, 35, 20)  (  3, 35, 20)  (  3, 35, 20)  (  3, 35, 20)
  0 -0.6561E-06  0 -0.2958E-06  0 -0.2212E-06  0 -0.1696E-06  0 -0.1185E-06
   (  3, 35, 20)  (  3, 34, 21)  (  3, 34, 21)  (  3, 34, 21)  (  3, 34, 21)
  0 -0.8317E-07  0 -0.5760E-07  0 -0.3546E-07  0 -0.2004E-07  1 -0.2841E-07
   (  3, 34, 21)  (  3, 34, 21)  (  3, 34, 21)  (  3, 34, 21)  (  3, 38, 17)


 SUM OF POSITIVE RATES= 1.00000E+00    SUM OF NEGATIVE RATES= 1.00000E+00
               PERCENT DISCREPANCY= 2.05E-06
        SENSITIVITY CALCULATION FOR GLOBAL OBSERVATION 35 obs3_11     


     2 CALLS TO PCG ROUTINE FOR TIME STEP   1 IN STRESS PERIOD    1
    39 TOTAL ITERATIONS

 MAXIMUM HEAD CHANGE FOR EACH ITERATION (1 INDICATES THE FIRST INNER ITERATION):

    HEAD CHANGE    HEAD CHANGE    HEAD CHANGE    HEAD CHANGE    HEAD CHANGE 
   LAYER,ROW,COL  LAYER,ROW,COL  LAYER,ROW,COL  LAYER,ROW,COL  LAYER,ROW,COL
 ---------------------------------------------------------------------------
  1   122.7      0   110.7      0   55.38      0   27.34      0  -17.86    
   (  3, 13, 18)  (  3, 13, 18)  (  3, 13, 18)  (  2, 17, 20)  (  2, 27, 25)
  0  -11.36      0  -8.419      0   4.536      0   1.843      0  -1.666    
   (  3,  2, 16)  (  3, 24, 19)  (  3,  9, 21)  (  2, 14, 20)  (  3, 12, 12)
  0   1.609      0  -1.110      0 -0.9145      0  0.6567      0 -0.2715    
   (  2, 39, 25)  (  2, 29, 20)  (  2, 15, 24)  (  2, 11, 23)  (  3,  1, 21)
  0 -0.1197      0  0.1154      0  0.7834E-01  0 -0.5412E-01  0 -0.2138E-01
   (  3, 23, 15)  (  2, 11, 22)  (  3, 34, 21)  (  3, 26, 13)  (  3, 20, 15)
  0  0.1989E-01  0 -0.1029E-01  0 -0.1139E-01  0  0.5783E-02  0  0.4579E-02
   (  3, 33, 20)  (  3, 29, 17)  (  2, 19, 21)  (  2, 24, 21)  (  2, 31, 17)
  0 -0.2778E-02  0  0.1303E-02  0  0.9035E-03  0 -0.6993E-03  0  0.1854E-03
   (  2, 35, 19)  (  2, 39, 21)  (  2, 14, 27)  (  2, 11, 26)  (  3,  6, 11)
  0 -0.1225E-03  0 -0.1112E-03  0 -0.7408E-04  0  0.5760E-04  0 -0.3351E-04
   (  3, 35, 25)  (  2, 10, 27)  (  3, 13, 21)  (  3,  3, 17)  (  3,  5, 23)
  0 -0.2563E-04  0  0.1560E-04  0  0.5571E-05  1 -0.6200E-05
   (  3, 23, 22)  (  3, 34, 27)  (  2, 10, 22)  (  2, 14, 20)

 MAXIMUM RESIDUAL FOR EACH ITERATION (1 INDICATES THE FIRST INNER ITERATION):

    RESIDUAL       RESIDUAL       RESIDUAL       RESIDUAL       RESIDUAL    
   LAYER,ROW,COL  LAYER,ROW,COL  LAYER,ROW,COL  LAYER,ROW,COL  LAYER,ROW,COL
 ---------------------------------------------------------------------------
  1 -0.8651      0 -0.5638      0 -0.3203      0 -0.1946      0 -0.1082    
   (  3, 13, 18)  (  3, 13, 18)  (  3, 13, 18)  (  3, 13, 18)  (  3, 13, 18)
  0 -0.6983E-01  0 -0.5030E-01  0 -0.3298E-01  0 -0.2458E-01  0 -0.1345E-01
   (  3, 12, 19)  (  3, 12, 19)  (  3, 12, 19)  (  3, 12, 19)  (  3, 12, 19)
  0 -0.8272E-02  0 -0.4959E-02  0 -0.2877E-02  0 -0.2047E-02  0 -0.1237E-02
   (  3, 12, 19)  (  3, 12, 19)  (  3, 14, 17)  (  3, 11, 20)  (  3, 11, 20)
  0 -0.9053E-03  0 -0.6346E-03  0 -0.3782E-03  0 -0.2265E-03  0 -0.1369E-03
   (  3, 11, 20)  (  3, 11, 20)  (  3, 11, 20)  (  3, 11, 20)  (  3, 11, 20)
  0 -0.7270E-04  0 -0.3630E-04  0 -0.2866E-04  0 -0.2107E-04  0 -0.1226E-04
   (  3, 11, 20)  (  3, 11, 20)  (  3, 10, 21)  (  3, 10, 21)  (  3, 10, 21)
  0 -0.8030E-05  0 -0.4990E-05  0 -0.2835E-05  0 -0.1574E-05  0 -0.9443E-06
   (  3, 10, 21)  (  3, 10, 21)  (  3, 10, 21)  (  3, 10, 21)  (  3, 10, 21)
  0 -0.6440E-06  0 -0.4589E-06  0 -0.3567E-06  0 -0.2338E-06  0 -0.1201E-06
   (  3,  9, 22)  (  3,  9, 22)  (  3,  9, 22)  (  3,  9, 22)  (  3,  9, 22)
  0 -0.8402E-07  0 -0.4766E-07  0 -0.2564E-07  1 -0.2344E-07
   (  3,  9, 22)  (  3,  9, 22)  (  3, 17, 14)  (  3, 17, 14)


 SUM OF POSITIVE RATES= 1.00000E+00    SUM OF NEGATIVE RATES= 1.00000E+00
               PERCENT DISCREPANCY= 7.87E-06
        SENSITIVITY CALCULATION FOR GLOBAL OBSERVATION 36 obs3_12     

 HEAD AND DRAWDOWN OBSERVATIONS
 OBSERVATION      OBSERVED      SIMULATED
   NAME             VALUE         VALUE      DIFFERENCE
 -------------------------------------------------------
 obs1_01         0.00000       59.4746      -59.4746    
 obs1_02         0.00000       58.0244      -58.0244    
 obs1_03         0.00000       59.0088      -59.0088    
 obs1_04         0.00000       57.9671      -57.9671    
 obs1_05         0.00000       59.5722      -59.5722    
 obs1_06         0.00000       58.0779      -58.0779    
 obs1_07         0.00000       58.0630      -58.0630    
 obs1_08         0.00000       58.2537      -58.2537    
 obs1_09         0.00000       59.4487      -59.4487    
 obs1_10         0.00000       58.0594      -58.0594    
 obs1_11         0.00000       58.6521      -58.6521    
 obs1_12         0.00000       58.0426      -58.0426    
 obs2_01         0.00000       59.3769      -59.3769    
 obs2_02         0.00000       57.9007      -57.9007    
 obs2_03         0.00000       58.6784      -58.6784    
 obs2_04         0.00000       57.5523      -57.5523    
 obs2_05         0.00000       59.4858      -59.4858    
 obs2_06         0.00000       57.9831      -57.9831    
 obs2_07         0.00000       56.6391      -56.6391    
 obs2_08         0.00000       57.6564      -57.6564    
 obs2_09         0.00000       59.3442      -59.3442    
 obs2_10         0.00000       57.7307      -57.7307    
 obs2_11         0.00000       58.2652      -58.2652    
 obs2_12         0.00000       56.6844      -56.6844    
 obs3_01         0.00000       59.2597      -59.2597    
 obs3_02         0.00000       57.7890      -57.7890    
 obs3_03         0.00000       58.4762      -58.4762    
 obs3_04         0.00000       57.3255      -57.3255    
 obs3_05         0.00000       59.3519      -59.3519    
 obs3_06         0.00000       57.8780      -57.8780    
 obs3_07         0.00000       56.6313      -56.6313    
 obs3_08         0.00000       57.3327      -57.3327    
 obs3_09         0.00000       59.2485      -59.2485    
 obs3_10         0.00000       57.5243      -57.5243    
 obs3_11         0.00000       57.9013      -57.9013    
 obs3_12         0.00000       56.5594      -56.5594    

 SUM OF SQUARED DIFFERENCE:    1.21971E+05

 Run end date and time (yyyy/mm/dd hh:mm:ss): 2011/10/11 18:24:30
 Elapsed run time:  1.780 Seconds

