                        MODFLOW-ADJOINT Version 0.96 07/14/2007
            SENSITIVITY CALCULATIONS USING THE ADJOINT STATE METHOD FOR
      U.S. GEOLOGICAL SURVEY MODULAR FINITE-DIFFERENCE GROUND-WATER FLOW MODEL
                             VERSION 1.1 05/18/2006

 LIST FILE: three_layers.lst
                         UNIT    7

 OPENING three_layers.bas
 FILE TYPE:BAS6   UNIT    1   STATUS:OLD    
 FORMAT:FORMATTED              ACCESS:SEQUENTIAL          

 OPENING three_layers.dis
 FILE TYPE:DIS   UNIT   29   STATUS:OLD    
 FORMAT:FORMATTED              ACCESS:SEQUENTIAL          

 OPENING three_layers.lpf
 FILE TYPE:LPF   UNIT   11   STATUS:OLD    
 FORMAT:FORMATTED              ACCESS:SEQUENTIAL          

 OPENING three_layers.zon
 FILE TYPE:ZONE   UNIT   13   STATUS:OLD    
 FORMAT:FORMATTED              ACCESS:SEQUENTIAL          

 OPENING three_layers.wel
 FILE TYPE:WEL   UNIT   12   STATUS:OLD    
 FORMAT:FORMATTED              ACCESS:SEQUENTIAL          

 OPENING three_layers.oc
 FILE TYPE:OC   UNIT   22   STATUS:OLD    
 FORMAT:FORMATTED              ACCESS:SEQUENTIAL          

 OPENING three_layers.mlt
 FILE TYPE:MULT   UNIT    8   STATUS:OLD    
 FORMAT:FORMATTED              ACCESS:SEQUENTIAL          

 OPENING three_layers.pcg
 FILE TYPE:PCG   UNIT   19   STATUS:OLD    
 FORMAT:FORMATTED              ACCESS:SEQUENTIAL          

 OPENING three_layers.chd
 FILE TYPE:CHD   UNIT   40   STATUS:OLD    
 FORMAT:FORMATTED              ACCESS:SEQUENTIAL          

 OPENING three_layers.hob
 FILE TYPE:HOB   UNIT   18   STATUS:OLD    
 FORMAT:FORMATTED              ACCESS:SEQUENTIAL          

 OPENING three_layers.hbs
 FILE TYPE:DATA   UNIT   14   STATUS:UNKNOWN
 FORMAT:FORMATTED              ACCESS:SEQUENTIAL          

 OPENING three_layers.cbb
 FILE TYPE:DATA(BINARY)   UNIT   50   STATUS:UNKNOWN
 FORMAT:UNFORMATTED            ACCESS:SEQUENTIAL          

 OPENING three_layers.cbw
 FILE TYPE:DATA(BINARY)   UNIT   54   STATUS:UNKNOWN
 FORMAT:UNFORMATTED            ACCESS:SEQUENTIAL          

 OPENING three_layers.hds
 FILE TYPE:DATA(BINARY)   UNIT   30   STATUS:UNKNOWN
 FORMAT:UNFORMATTED            ACCESS:SEQUENTIAL          

 OPENING three_layers.ddn
 FILE TYPE:DATA(BINARY)   UNIT   31   STATUS:UNKNOWN
 FORMAT:UNFORMATTED            ACCESS:SEQUENTIAL          

 BAS -- BASIC PACKAGE, VERSION 7, 5/2/2005 INPUT READ FROM UNIT    1

 DISCRETIZATION INPUT DATA READ FROM UNIT   29
 # Discretization File
 # Upper left corner: (0, 0)
 # Lower left corner: (0, -60)
 # Upper right corner: (70, 0)
 # Lower right corner: (70, -60)
    3 LAYERS        40 ROWS        35 COLUMNS
    1 STRESS PERIOD(S) IN SIMULATION
 MODEL TIME UNIT IS SECONDS
 MODEL LENGTH UNIT IS METERS
  Confining bed flag for each layer:
   0   0   0

                     DELR =   2.00000    

                     DELC =   1.50000    

 TOP ELEVATION OF LAYER 1 =   40.0000    

   MODEL LAYER BOTTOM EL. =   32.0000     FOR LAYER   1

   MODEL LAYER BOTTOM EL. =   18.0000     FOR LAYER   2

   MODEL LAYER BOTTOM EL. =   0.00000     FOR LAYER   3


 STRESS PERIOD     LENGTH       TIME STEPS     MULTIPLIER FOR DELT    SS FLAG
 ----------------------------------------------------------------------------
        1         1.000000          1                    1.000         SS

 STEADY-STATE SIMULATION



 
 # Basic Package file created                                                    
 THE FREE FORMAT OPTION HAS BEEN SELECTED

           BOUNDARY ARRAY =              1 FOR LAYER   1

           BOUNDARY ARRAY =              1 FOR LAYER   2

           BOUNDARY ARRAY =              1 FOR LAYER   3

 AQUIFER HEAD WILL BE SET TO  999.00     AT ALL NO-FLOW NODES (IBOUND=0).

             INITIAL HEAD =   60.0000     FOR LAYER   1

             INITIAL HEAD =   60.0000     FOR LAYER   2

             INITIAL HEAD =   60.0000     FOR LAYER   3

 OUTPUT CONTROL IS SPECIFIED ONLY AT TIME STEPS FOR WHICH OUTPUT IS DESIRED
 HEAD PRINT FORMAT CODE IS   0    DRAWDOWN PRINT FORMAT CODE IS   0
 HEADS WILL BE SAVED ON UNIT   30    DRAWDOWNS WILL BE SAVED ON UNIT   31

 ZONE OPTION, INPUT READ FROM UNIT   13
 # Zone (ZONE) File
     3 ZONE ARRAYS

 MULTIPLIER OPTION, INPUT READ FROM UNIT    8
 # Multiplier (MULT)
   3 MULTIPLIER ARRAYS



            MULT. ARRAY: HK_Par1_M1
 READING ON UNIT    8 WITH FORMAT: (FREE)              

            1           2           3           4           5           6           7           8           9          10
           11          12          13          14          15          16          17          18          19          20
           21          22          23          24          25          26          27          28          29          30
           31          32          33          34          35
 ........................................................................................................................
   1   1.2560E-03  1.2991E-03  1.3435E-03  1.3884E-03  1.4334E-03  1.4768E-03  1.5163E-03  1.5500E-03  1.5788E-03  1.5977E-03
       1.6065E-03  1.6037E-03  1.5883E-03  1.5578E-03  1.5120E-03  1.4533E-03  1.3835E-03  1.3041E-03  1.2207E-03  1.1393E-03
       1.0663E-03  1.0061E-03  9.6037E-04  9.2823E-04  9.0782E-04  8.9716E-04  8.9348E-04  8.9554E-04  9.0206E-04  9.1146E-04
       9.2170E-04  9.3087E-04  9.3763E-04  9.4108E-04  9.4132E-04
   2   1.2307E-03  1.2749E-03  1.3210E-03  1.3678E-03  1.4152E-03  1.4608E-03  1.5027E-03  1.5393E-03  1.5712E-03  1.5924E-03
       1.6034E-03  1.6023E-03  1.5878E-03  1.5573E-03  1.5105E-03  1.4497E-03  1.3771E-03  1.2937E-03  1.2049E-03  1.1180E-03
       1.0407E-03  9.7837E-04  9.3275E-04  9.0207E-04  8.8382E-04  8.7562E-04  8.7441E-04  8.7868E-04  8.8733E-04  8.9908E-04
       9.1146E-04  9.2262E-04  9.3060E-04  9.3461E-04  9.3491E-04
   3   1.2011E-03  1.2456E-03  1.2925E-03  1.3408E-03  1.3894E-03  1.4366E-03  1.4806E-03  1.5202E-03  1.5544E-03  1.5778E-03
       1.5901E-03  1.5905E-03  1.5768E-03  1.5464E-03  1.4992E-03  1.4371E-03  1.3622E-03  1.2771E-03  1.1851E-03  1.0939E-03
       1.0133E-03  9.5041E-04  9.0610E-04  8.7778E-04  8.6215E-04  8.5641E-04  8.5752E-04  8.6376E-04  8.7417E-04  8.8747E-04
       9.0161E-04  9.1428E-04  9.2301E-04  9.2734E-04  9.2774E-04
   4   1.1680E-03  1.2117E-03  1.2587E-03  1.3077E-03  1.3568E-03  1.4047E-03  1.4501E-03  1.4923E-03  1.5283E-03  1.5533E-03
       1.5670E-03  1.5685E-03  1.5550E-03  1.5244E-03  1.4769E-03  1.4140E-03  1.3385E-03  1.2527E-03  1.1596E-03  1.0660E-03
       9.8335E-04  9.2189E-04  8.8059E-04  8.5564E-04  8.4302E-04  8.3966E-04  8.4282E-04  8.5090E-04  8.6275E-04  8.7700E-04
       8.9221E-04  9.0583E-04  9.1477E-04  9.1919E-04  9.1975E-04
   5   1.1316E-03  1.1736E-03  1.2200E-03  1.2688E-03  1.3181E-03  1.3664E-03  1.4133E-03  1.4564E-03  1.4939E-03  1.5206E-03
       1.5358E-03  1.5378E-03  1.5241E-03  1.4927E-03  1.4443E-03  1.3807E-03  1.3048E-03  1.2192E-03  1.1269E-03  1.0329E-03
       9.5057E-04  8.9338E-04  8.5682E-04  8.3590E-04  8.2622E-04  8.2519E-04  8.3022E-04  8.3987E-04  8.5294E-04  8.6766E-04
       8.8334E-04  8.9698E-04  9.0577E-04  9.1010E-04  9.1089E-04
   6   1.0926E-03  1.1322E-03  1.1772E-03  1.2253E-03  1.2744E-03  1.3231E-03  1.3698E-03  1.4143E-03  1.4533E-03  1.4818E-03
       1.4982E-03  1.5004E-03  1.4857E-03  1.4530E-03  1.4029E-03  1.3384E-03  1.2619E-03  1.1764E-03  1.0862E-03  9.9303E-04
       9.1632E-04  8.6620E-04  8.3521E-04  8.1846E-04  8.1173E-04  8.1284E-04  8.1950E-04  8.3038E-04  8.4426E-04  8.5939E-04
       8.7465E-04  8.8726E-04  8.9571E-04  9.0018E-04  9.0115E-04
   7   1.0514E-03  1.0882E-03  1.1314E-03  1.1781E-03  1.2268E-03  1.2753E-03  1.3226E-03  1.3681E-03  1.4084E-03  1.4389E-03
       1.4563E-03  1.4584E-03  1.4421E-03  1.4076E-03  1.3555E-03  1.2893E-03  1.2120E-03  1.1270E-03  1.0382E-03  9.5185E-04
       8.8588E-04  8.4239E-04  8.1648E-04  8.0325E-04  7.9915E-04  8.0211E-04  8.1005E-04  8.2181E-04  8.3601E-04  8.5095E-04
       8.6528E-04  8.7694E-04  8.8514E-04  8.8968E-04  8.9101E-04
   8   1.0089E-03  1.0423E-03  1.0830E-03  1.1281E-03  1.1758E-03  1.2245E-03  1.2726E-03  1.3196E-03  1.3615E-03  1.3939E-03
       1.4126E-03  1.4143E-03  1.3966E-03  1.3597E-03  1.3056E-03  1.2378E-03  1.1602E-03  1.0772E-03  9.9333E-04  9.1697E-04
       8.5940E-04  8.2207E-04  8.0045E-04  7.9032E-04  7.8859E-04  7.9287E-04  8.0176E-04  8.1400E-04  8.2796E-04  8.4235E-04
       8.5553E-04  8.6637E-04  8.7414E-04  8.7874E-04  8.8054E-04
   9   9.6562E-04  9.9550E-04  1.0331E-03  1.0762E-03  1.1231E-03  1.1720E-03  1.2212E-03  1.2703E-03  1.3148E-03  1.3494E-03
       1.3690E-03  1.3704E-03  1.3514E-03  1.3125E-03  1.2563E-03  1.1877E-03  1.1112E-03  1.0315E-03  9.5454E-04  8.8756E-04
       8.3766E-04  8.0515E-04  7.8721E-04  7.7975E-04  7.7977E-04  7.8508E-04  7.9444E-04  8.0660E-04  8.2002E-04  8.3342E-04
       8.4556E-04  8.5558E-04  8.6287E-04  8.6755E-04  8.6991E-04
  10   9.2283E-04  9.4905E-04  9.8318E-04  1.0240E-03  1.0699E-03  1.1191E-03  1.1702E-03  1.2221E-03  1.2695E-03  1.3064E-03
       1.3275E-03  1.3291E-03  1.3092E-03  1.2685E-03  1.2106E-03  1.1416E-03  1.0670E-03  9.9201E-04  9.2196E-04  8.6320E-04
       8.1996E-04  7.9180E-04  7.7676E-04  7.7143E-04  7.7280E-04  7.7871E-04  7.8814E-04  7.9964E-04  8.1217E-04  8.2446E-04
       8.3549E-04  8.4480E-04  8.5186E-04  8.5663E-04  8.5938E-04
  11   8.8111E-04  9.0376E-04  9.3450E-04  9.7258E-04  1.0174E-03  1.0675E-03  1.1214E-03  1.1763E-03  1.2273E-03  1.2672E-03
       1.2901E-03  1.2922E-03  1.2714E-03  1.2295E-03  1.1704E-03  1.1014E-03  1.0287E-03  9.5818E-04  8.9498E-04  8.4361E-04
       8.0613E-04  7.8188E-04  7.6911E-04  7.6533E-04  7.6751E-04  7.7375E-04  7.8272E-04  7.9331E-04  8.0463E-04  8.1575E-04
       8.2588E-04  8.3456E-04  8.4135E-04  8.4616E-04  8.4918E-04
  12   8.4142E-04  8.6022E-04  8.8778E-04  9.2364E-04  9.6754E-04  1.0182E-03  1.0744E-03  1.1334E-03  1.1889E-03  1.2326E-03
       1.2576E-03  1.2603E-03  1.2395E-03  1.1964E-03  1.1367E-03  1.0678E-03  9.9672E-04  9.3026E-04  8.7318E-04  8.2839E-04
       7.9587E-04  7.7507E-04  7.6404E-04  7.6108E-04  7.6379E-04  7.7006E-04  7.7831E-04  7.8781E-04  7.9786E-04  8.0783E-04
       8.1700E-04  8.2500E-04  8.3147E-04  8.3626E-04  8.3964E-04
  13   8.0427E-04  8.1963E-04  8.4435E-04  8.7818E-04  9.2112E-04  9.7213E-04  1.0306E-03  1.0946E-03  1.1552E-03  1.2025E-03
       1.2299E-03  1.2335E-03  1.2125E-03  1.1689E-03  1.1088E-03  1.0405E-03  9.7052E-04  9.0781E-04  8.5635E-04  8.1704E-04
       7.8877E-04  7.7073E-04  7.6136E-04  7.5885E-04  7.6165E-04  7.6747E-04  7.7487E-04  7.8317E-04  7.9192E-04  8.0069E-04
       8.0895E-04  8.1615E-04  8.2229E-04  8.2705E-04  8.3061E-04
  14   7.7014E-04  7.8247E-04  8.0485E-04  8.3713E-04  8.7923E-04  9.3084E-04  9.9148E-04  1.0605E-03  1.1260E-03  1.1766E-03
       1.2058E-03  1.2107E-03  1.1892E-03  1.1461E-03  1.0861E-03  1.0177E-03  9.4983E-04  8.9085E-04  8.4443E-04  8.0962E-04
       7.8483E-04  7.6897E-04  7.6053E-04  7.5825E-04  7.6057E-04  7.6584E-04  7.7221E-04  7.7927E-04  7.8674E-04  7.9434E-04
       8.0167E-04  8.0820E-04  8.1392E-04  8.1847E-04  8.2210E-04
  15   7.3976E-04  7.4945E-04  7.7004E-04  8.0157E-04  8.4332E-04  8.9519E-04  9.5733E-04  1.0304E-03  1.1011E-03  1.1536E-03
       1.1837E-03  1.1891E-03  1.1686E-03  1.1255E-03  1.0666E-03  9.9977E-04  9.3437E-04  8.8008E-04  8.3776E-04  8.0644E-04
       7.8415E-04  7.6972E-04  7.6172E-04  7.5907E-04  7.6077E-04  7.6512E-04  7.7032E-04  7.7604E-04  7.8219E-04  7.8871E-04
       7.9509E-04  8.0094E-04  8.0616E-04  8.1055E-04  8.1410E-04
  16   7.1302E-04  7.2079E-04  7.4034E-04  7.7144E-04  8.1371E-04  8.6626E-04  9.2937E-04  1.0057E-03  1.0788E-03  1.1311E-03
       1.1614E-03  1.1669E-03  1.1474E-03  1.1065E-03  1.0508E-03  9.8719E-04  9.2448E-04  8.7491E-04  8.3625E-04  8.0755E-04
       7.8687E-04  7.7307E-04  7.6483E-04  7.6132E-04  7.6183E-04  7.6514E-04  7.6925E-04  7.7366E-04  7.7839E-04  7.8367E-04
       7.8914E-04  7.9433E-04  7.9906E-04  8.0311E-04  8.0651E-04
  17   6.9013E-04  6.9655E-04  7.1538E-04  7.4689E-04  7.9048E-04  8.4487E-04  9.1000E-04  9.8412E-04  1.0550E-03  1.1069E-03
       1.1368E-03  1.1422E-03  1.1240E-03  1.0874E-03  1.0374E-03  9.8001E-04  9.2169E-04  8.7614E-04  8.4024E-04  8.1261E-04
       7.9255E-04  7.7835E-04  7.6937E-04  7.6482E-04  7.6395E-04  7.6600E-04  7.6888E-04  7.7185E-04  7.7526E-04  7.7929E-04
       7.8376E-04  7.8829E-04  7.9252E-04  7.9612E-04  7.9942E-04
  18   6.7099E-04  6.7624E-04  6.9497E-04  7.2742E-04  7.7314E-04  8.3015E-04  8.9628E-04  9.6687E-04  1.0330E-03  1.0818E-03
       1.1095E-03  1.1149E-03  1.0984E-03  1.0662E-03  1.0238E-03  9.7671E-04  9.2728E-04  8.8310E-04  8.4774E-04  8.2015E-04
       7.9984E-04  7.8505E-04  7.7519E-04  7.6962E-04  7.6735E-04  7.6761E-04  7.6890E-04  7.7053E-04  7.7271E-04  7.7559E-04
       7.7913E-04  7.8304E-04  7.8663E-04  7.8990E-04  7.9293E-04
  19   6.5568E-04  6.5984E-04  6.7871E-04  7.1300E-04  7.6131E-04  8.2095E-04  8.8731E-04  9.5408E-04  1.0138E-03  1.0577E-03
       1.0816E-03  1.0854E-03  1.0697E-03  1.0413E-03  1.0062E-03  9.6868E-04  9.3096E-04  8.8945E-04  8.5449E-04  8.2726E-04
       8.0707E-04  7.9193E-04  7.8137E-04  7.7499E-04  7.7125E-04  7.6980E-04  7.6933E-04  7.6951E-04  7.7054E-04  7.7242E-04
       7.7513E-04  7.7838E-04  7.8151E-04  7.8437E-04  7.8701E-04
  20   6.4419E-04  6.4734E-04  6.6655E-04  7.0291E-04  7.5452E-04  8.1684E-04  8.8292E-04  9.4567E-04  9.9875E-04  1.0360E-03
       1.0546E-03  1.0548E-03  1.0386E-03  1.0117E-03  9.8138E-04  9.5203E-04  9.2261E-04  8.8773E-04  8.5552E-04  8.3046E-04
       8.1132E-04  7.9662E-04  7.8620E-04  7.7941E-04  7.7474E-04  7.7173E-04  7.6978E-04  7.6866E-04  7.6859E-04  7.6962E-04
       7.7163E-04  7.7416E-04  7.7686E-04  7.7931E-04  7.8157E-04
  21   6.3660E-04  6.3873E-04  6.5826E-04  6.9687E-04  7.5238E-04  8.1793E-04  8.8347E-04  9.4193E-04  9.8788E-04  1.0176E-03
       1.0295E-03  1.0243E-03  1.0057E-03  9.7906E-04  9.5098E-04  9.2698E-04  9.0442E-04  8.7670E-04  8.4932E-04  8.2767E-04
       8.1043E-04  7.9731E-04  7.8778E-04  7.8123E-04  7.7650E-04  7.7271E-04  7.6970E-04  7.6755E-04  7.6661E-04  7.6700E-04
       7.6852E-04  7.7056E-04  7.7269E-04  7.7466E-04  7.7654E-04
  22   6.3351E-04  6.3444E-04  6.5389E-04  6.9456E-04  7.5465E-04  8.2399E-04  8.8947E-04  9.4277E-04  9.8113E-04  1.0030E-03
       1.0076E-03  9.9667E-04  9.7447E-04  9.4615E-04  9.1790E-04  8.9576E-04  8.7857E-04  8.5749E-04  8.3595E-04  8.1803E-04
       8.0357E-04  7.9287E-04  7.8511E-04  7.7934E-04  7.7513E-04  7.7162E-04  7.6850E-04  7.6580E-04  7.6441E-04  7.6442E-04
       7.6551E-04  7.6709E-04  7.6880E-04  7.7036E-04  7.7184E-04
  23   6.3574E-04  6.3522E-04  6.5396E-04  6.9622E-04  7.6103E-04  8.3469E-04  8.9977E-04  9.4814E-04  9.7909E-04  9.9282E-04
       9.9017E-04  9.7333E-04  9.4712E-04  9.1596E-04  8.8624E-04  8.6256E-04  8.4646E-04  8.3192E-04  8.1636E-04  8.0236E-04
       7.9091E-04  7.8263E-04  7.7691E-04  7.7302E-04  7.7029E-04  7.6797E-04  7.6544E-04  7.6314E-04  7.6173E-04  7.6176E-04
       7.6260E-04  7.6379E-04  7.6511E-04  7.6631E-04  7.6745E-04
  24   6.4432E-04  6.4247E-04  6.5991E-04  7.0203E-04  7.7157E-04  8.4934E-04  9.1322E-04  9.5708E-04  9.8153E-04  9.8795E-04
       9.7858E-04  9.5628E-04  9.2570E-04  8.9163E-04  8.5992E-04  8.3427E-04  8.1637E-04  8.0528E-04  7.9379E-04  7.8304E-04
       7.7413E-04  7.6757E-04  7.6349E-04  7.6159E-04  7.6123E-04  7.6125E-04  7.6021E-04  7.5901E-04  7.5842E-04  7.5878E-04
       7.5965E-04  7.6062E-04  7.6155E-04  7.6237E-04  7.6317E-04
  25   6.6000E-04  6.5750E-04  6.7377E-04  7.1413E-04  7.8564E-04  8.6624E-04  9.2756E-04  9.6831E-04  9.8811E-04  9.8845E-04
       9.7334E-04  9.4642E-04  9.1224E-04  8.7571E-04  8.4175E-04  8.1400E-04  7.9474E-04  7.8263E-04  7.7239E-04  7.6303E-04
       7.5549E-04  7.4997E-04  7.4662E-04  7.4608E-04  7.4804E-04  7.5130E-04  7.5261E-04  7.5354E-04  7.5474E-04  7.5577E-04
       7.5672E-04  7.5752E-04  7.5809E-04  7.5848E-04  7.5892E-04
  26   6.8357E-04  6.8168E-04  6.9822E-04  7.3854E-04  8.0492E-04  8.8087E-04  9.4142E-04  9.8075E-04  9.9793E-04  9.9455E-04
       9.7519E-04  9.4467E-04  9.0786E-04  8.6905E-04  8.3273E-04  8.0270E-04  7.8079E-04  7.6590E-04  7.5444E-04  7.4502E-04
       7.3758E-04  7.3195E-04  7.2852E-04  7.2834E-04  7.3174E-04  7.3834E-04  7.4305E-04  7.4703E-04  7.5045E-04  7.5284E-04
       7.5405E-04  7.5467E-04  7.5474E-04  7.5463E-04  7.5472E-04
  27   7.1511E-04  7.1502E-04  7.3263E-04  7.7190E-04  8.3203E-04  9.0036E-04  9.5797E-04  9.9560E-04  1.0115E-03  1.0066E-03
       9.8473E-04  9.5197E-04  9.1302E-04  8.7192E-04  8.3303E-04  7.9998E-04  7.7441E-04  7.5568E-04  7.4175E-04  7.3088E-04
       7.2240E-04  7.1596E-04  7.1200E-04  7.1141E-04  7.1491E-04  7.2309E-04  7.3255E-04  7.4017E-04  7.4617E-04  7.5000E-04
       7.5175E-04  7.5227E-04  7.5169E-04  7.5093E-04  7.5059E-04
  28   7.5436E-04  7.5702E-04  7.7575E-04  8.1318E-04  8.6703E-04  9.2730E-04  9.7962E-04  1.0149E-03  1.0299E-03  1.0246E-03
       1.0020E-03  9.6813E-04  9.2739E-04  8.8394E-04  8.4226E-04  8.0565E-04  7.7585E-04  7.5284E-04  7.3518E-04  7.2185E-04
       7.1172E-04  7.0435E-04  6.9990E-04  6.9918E-04  7.0285E-04  7.1124E-04  7.2405E-04  7.3489E-04  7.4286E-04  7.4783E-04
       7.5010E-04  7.5019E-04  7.4891E-04  7.4731E-04  7.4646E-04
  29   8.0068E-04  8.0663E-04  8.2655E-04  8.6163E-04  9.0930E-04  9.6158E-04  1.0078E-03  1.0400E-03  1.0540E-03  1.0490E-03
       1.0274E-03  9.9319E-04  9.5119E-04  9.0545E-04  8.6049E-04  8.1968E-04  7.8520E-04  7.5752E-04  7.3566E-04  7.1918E-04
       7.0709E-04  6.9867E-04  6.9428E-04  6.9401E-04  6.9822E-04  7.0746E-04  7.2071E-04  7.3278E-04  7.4182E-04  7.4717E-04
       7.4919E-04  7.4846E-04  7.4608E-04  7.4367E-04  7.4227E-04
  30   8.5320E-04  8.6286E-04  8.8383E-04  9.1657E-04  9.5819E-04  1.0028E-03  1.0429E-03  1.0716E-03  1.0845E-03  1.0803E-03
       1.0603E-03  1.0272E-03  9.8438E-04  9.3590E-04  8.8729E-04  8.4214E-04  8.0244E-04  7.6958E-04  7.4324E-04  7.2336E-04
       7.0928E-04  7.0013E-04  6.9608E-04  6.9667E-04  7.0185E-04  7.1114E-04  7.2347E-04  7.3507E-04  7.4363E-04  7.4833E-04
       7.4906E-04  7.4687E-04  7.4332E-04  7.4000E-04  7.3796E-04
  31   9.1109E-04  9.2468E-04  9.4662E-04  9.7697E-04  1.0127E-03  1.0500E-03  1.0841E-03  1.1096E-03  1.1216E-03  1.1184E-03
       1.1005E-03  1.0685E-03  1.0253E-03  9.7466E-04  9.2240E-04  8.7238E-04  8.2715E-04  7.8889E-04  7.5792E-04  7.3473E-04
       7.1898E-04  7.0950E-04  7.0557E-04  7.0683E-04  7.1248E-04  7.2141E-04  7.3217E-04  7.4205E-04  7.4876E-04  7.5142E-04
       7.4984E-04  7.4539E-04  7.4013E-04  7.3590E-04  7.3352E-04
  32   9.7312E-04  9.9093E-04  1.0139E-03  1.0415E-03  1.0714E-03  1.1018E-03  1.1305E-03  1.1529E-03  1.1648E-03  1.1631E-03
       1.1468E-03  1.1162E-03  1.0732E-03  1.0214E-03  9.6524E-04  9.0983E-04  8.5860E-04  8.1473E-04  7.7956E-04  7.5356E-04
       7.3639E-04  7.2647E-04  7.2272E-04  7.2409E-04  7.2947E-04  7.3755E-04  7.4638E-04  7.5367E-04  7.5736E-04  7.5668E-04
       7.5179E-04  7.4407E-04  7.3668E-04  7.3150E-04  7.2903E-04
  33   1.0381E-03  1.0598E-03  1.0841E-03  1.1092E-03  1.1331E-03  1.1568E-03  1.1809E-03  1.2012E-03  1.2132E-03  1.2129E-03
       1.1985E-03  1.1696E-03  1.1271E-03  1.0740E-03  1.0146E-03  9.5402E-04  8.9630E-04  8.4692E-04  8.0812E-04  7.7980E-04
       7.6128E-04  7.5068E-04  7.4664E-04  7.4762E-04  7.5220E-04  7.5862E-04  7.6534E-04  7.6964E-04  7.6968E-04  7.6470E-04
       7.5528E-04  7.4325E-04  7.3330E-04  7.2718E-04  7.2533E-04
  34   1.1030E-03  1.1296E-03  1.1553E-03  1.1784E-03  1.1961E-03  1.2135E-03  1.2343E-03  1.2531E-03  1.2651E-03  1.2663E-03
       1.2541E-03  1.2270E-03  1.1854E-03  1.1313E-03  1.0689E-03  1.0030E-03  9.3962E-04  8.8534E-04  8.4316E-04  8.1260E-04
       7.9264E-04  7.8134E-04  7.7670E-04  7.7662E-04  7.7964E-04  7.8388E-04  7.8788E-04  7.8900E-04  7.8525E-04  7.7552E-04
       7.6066E-04  7.4425E-04  7.3157E-04  7.2441E-04  7.2278E-04
  35   1.1657E-03  1.1972E-03  1.2243E-03  1.2462E-03  1.2591E-03  1.2708E-03  1.2896E-03  1.3072E-03  1.3193E-03  1.3217E-03
       1.3113E-03  1.2863E-03  1.2459E-03  1.1914E-03  1.1263E-03  1.0555E-03  9.8666E-04  9.2785E-04  8.8276E-04  8.5067E-04
       8.2952E-04  8.1734E-04  8.1121E-04  8.0948E-04  8.1051E-04  8.1239E-04  8.1317E-04  8.1096E-04  8.0315E-04  7.8864E-04
       7.6818E-04  7.4718E-04  7.3178E-04  7.2348E-04  7.2184E-04
  36   1.2237E-03  1.2593E-03  1.2875E-03  1.3076E-03  1.3188E-03  1.3293E-03  1.3454E-03  1.3615E-03  1.3732E-03  1.3764E-03
       1.3675E-03  1.3443E-03  1.3056E-03  1.2515E-03  1.1847E-03  1.1104E-03  1.0362E-03  9.7283E-04  9.2516E-04  8.9215E-04
       8.7045E-04  8.5695E-04  8.4880E-04  8.4495E-04  8.4355E-04  8.4224E-04  8.3954E-04  8.3382E-04  8.2221E-04  8.0343E-04
       7.7772E-04  7.5225E-04  7.3441E-04  7.2496E-04  7.2283E-04
  37   1.2756E-03  1.3136E-03  1.3426E-03  1.3618E-03  1.3732E-03  1.3839E-03  1.3985E-03  1.4130E-03  1.4241E-03  1.4273E-03
       1.4196E-03  1.3981E-03  1.3611E-03  1.3081E-03  1.2411E-03  1.1649E-03  1.0865E-03  1.0187E-03  9.6926E-04  9.3537E-04
       9.1249E-04  8.9755E-04  8.8794E-04  8.8165E-04  8.7690E-04  8.7200E-04  8.6554E-04  8.5598E-04  8.4097E-04  8.1899E-04
       7.8918E-04  7.5984E-04  7.4001E-04  7.2913E-04  7.2627E-04
  38   1.3201E-03  1.3593E-03  1.3887E-03  1.4079E-03  1.4207E-03  1.4319E-03  1.4453E-03  1.4587E-03  1.4687E-03  1.4716E-03
       1.4644E-03  1.4442E-03  1.4088E-03  1.3573E-03  1.2915E-03  1.2158E-03  1.1348E-03  1.0635E-03  1.0131E-03  9.7785E-04
       9.5350E-04  9.3686E-04  9.2549E-04  9.1693E-04  9.0845E-04  8.9982E-04  8.8954E-04  8.7630E-04  8.5818E-04  8.3292E-04
       8.0151E-04  7.7073E-04  7.4896E-04  7.3650E-04  7.3226E-04
  39   1.3567E-03  1.3957E-03  1.4255E-03  1.4452E-03  1.4591E-03  1.4712E-03  1.4839E-03  1.4960E-03  1.5045E-03  1.5066E-03
       1.4990E-03  1.4791E-03  1.4452E-03  1.3953E-03  1.3309E-03  1.2562E-03  1.1775E-03  1.1072E-03  1.0555E-03  1.0182E-03
       9.9195E-04  9.7327E-04  9.5973E-04  9.4833E-04  9.3690E-04  9.2443E-04  9.1055E-04  8.9382E-04  8.7291E-04  8.4578E-04
       8.1393E-04  7.8346E-04  7.6072E-04  7.4701E-04  7.4145E-04
  40   1.3849E-03  1.4226E-03  1.4521E-03  1.4729E-03  1.4882E-03  1.5008E-03  1.5128E-03  1.5234E-03  1.5303E-03  1.5305E-03
       1.5218E-03  1.5015E-03  1.4679E-03  1.4195E-03  1.3577E-03  1.2865E-03  1.2125E-03  1.1459E-03  1.0943E-03  1.0555E-03
       1.0269E-03  1.0056E-03  9.8924E-04  9.7477E-04  9.6031E-04  9.4464E-04  9.2780E-04  9.0832E-04  8.8539E-04  8.5751E-04
       8.2640E-04  7.9746E-04  7.7495E-04  7.6045E-04  7.5353E-04



            MULT. ARRAY: HK_Par1_M2
 READING ON UNIT    8 WITH FORMAT: (FREE)              

            1           2           3           4           5           6           7           8           9          10
           11          12          13          14          15          16          17          18          19          20
           21          22          23          24          25          26          27          28          29          30
           31          32          33          34          35
 ........................................................................................................................
   1   4.5670E-05  4.5395E-05  4.5071E-05  4.4721E-05  4.4321E-05  4.3827E-05  4.3200E-05  4.2427E-05  4.1530E-05  4.0564E-05
       3.9553E-05  3.8518E-05  3.7467E-05  3.6436E-05  3.5457E-05  3.4564E-05  3.3796E-05  3.3187E-05  3.2772E-05  3.2577E-05
       3.2575E-05  3.2712E-05  3.2919E-05  3.3142E-05  3.3348E-05  3.3495E-05  3.3556E-05  3.3502E-05  3.3335E-05  3.3073E-05
       3.2766E-05  3.2479E-05  3.2262E-05  3.2147E-05  3.2140E-05
   2   4.6672E-05  4.6456E-05  4.6204E-05  4.5920E-05  4.5584E-05  4.5154E-05  4.4560E-05  4.3791E-05  4.2880E-05  4.1897E-05
       4.0868E-05  3.9808E-05  3.8736E-05  3.7673E-05  3.6650E-05  3.5711E-05  3.4884E-05  3.4216E-05  3.3754E-05  3.3548E-05
       3.3584E-05  3.3771E-05  3.4018E-05  3.4266E-05  3.4478E-05  3.4625E-05  3.4664E-05  3.4566E-05  3.4328E-05  3.3968E-05
       3.3543E-05  3.3152E-05  3.2854E-05  3.2687E-05  3.2655E-05
   3   4.7761E-05  4.7616E-05  4.7440E-05  4.7231E-05  4.6997E-05  4.6651E-05  4.6099E-05  4.5341E-05  4.4437E-05  4.3458E-05
       4.2435E-05  4.1384E-05  4.0320E-05  3.9254E-05  3.8231E-05  3.7272E-05  3.6409E-05  3.5680E-05  3.5145E-05  3.4901E-05
       3.4964E-05  3.5191E-05  3.5447E-05  3.5691E-05  3.5882E-05  3.6000E-05  3.5992E-05  3.5833E-05  3.5515E-05  3.5042E-05
       3.4476E-05  3.3952E-05  3.3560E-05  3.3331E-05  3.3261E-05
   4   4.8939E-05  4.8879E-05  4.8794E-05  4.8688E-05  4.8567E-05  4.8325E-05  4.7818E-05  4.7080E-05  4.6207E-05  4.5261E-05
       4.4278E-05  4.3271E-05  4.2261E-05  4.1253E-05  4.0275E-05  3.9353E-05  3.8501E-05  3.7742E-05  3.7147E-05  3.6822E-05
       3.6880E-05  3.7075E-05  3.7282E-05  3.7467E-05  3.7591E-05  3.7637E-05  3.7557E-05  3.7320E-05  3.6910E-05  3.6315E-05
       3.5581E-05  3.4904E-05  3.4404E-05  3.4099E-05  3.3969E-05
   5   5.0201E-05  5.0253E-05  5.0280E-05  5.0283E-05  5.0298E-05  5.0163E-05  4.9702E-05  4.9008E-05  4.8191E-05  4.7309E-05
       4.6400E-05  4.5487E-05  4.4589E-05  4.3706E-05  4.2860E-05  4.2058E-05  4.1295E-05  4.0603E-05  4.0000E-05  3.9545E-05
       3.9532E-05  3.9548E-05  3.9582E-05  3.9613E-05  3.9612E-05  3.9544E-05  3.9368E-05  3.9032E-05  3.8508E-05  3.7793E-05
       3.6885E-05  3.6029E-05  3.5409E-05  3.5003E-05  3.4787E-05
   6   5.1545E-05  5.1734E-05  5.1904E-05  5.2055E-05  5.2176E-05  5.2100E-05  5.1719E-05  5.1102E-05  5.0371E-05  4.9589E-05
       4.8796E-05  4.8037E-05  4.7314E-05  4.6644E-05  4.6023E-05  4.5452E-05  4.4910E-05  4.4418E-05  4.3954E-05  4.3506E-05
       4.3081E-05  4.2669E-05  4.2361E-05  4.2140E-05  4.1948E-05  4.1728E-05  4.1424E-05  4.0957E-05  4.0292E-05  3.9422E-05
       3.8386E-05  3.7373E-05  3.6591E-05  3.6050E-05  3.5724E-05
   7   5.2953E-05  5.3300E-05  5.3632E-05  5.3928E-05  5.4144E-05  5.4148E-05  5.3850E-05  5.3336E-05  5.2722E-05  5.2081E-05
       5.1460E-05  5.0900E-05  5.0423E-05  5.0054E-05  4.9753E-05  4.9513E-05  4.9335E-05  4.9156E-05  4.8902E-05  4.8429E-05
       4.7341E-05  4.6312E-05  4.5534E-05  4.4987E-05  4.4564E-05  4.4165E-05  4.3709E-05  4.3080E-05  4.2251E-05  4.1213E-05
       4.0030E-05  3.8871E-05  3.7922E-05  3.7226E-05  3.6771E-05
   8   5.4399E-05  5.4919E-05  5.5416E-05  5.5852E-05  5.6170E-05  5.6266E-05  5.6071E-05  5.5677E-05  5.5209E-05  5.4748E-05
       5.4336E-05  5.4039E-05  5.3866E-05  5.3851E-05  5.3958E-05  5.4163E-05  5.4428E-05  5.4559E-05  5.4326E-05  5.3486E-05
       5.1895E-05  5.0252E-05  4.8966E-05  4.8060E-05  4.7383E-05  4.6790E-05  4.6167E-05  4.5376E-05  4.4367E-05  4.3148E-05
       4.1806E-05  4.0494E-05  3.9372E-05  3.8509E-05  3.7903E-05
   9   5.5849E-05  5.6544E-05  5.7205E-05  5.7779E-05  5.8208E-05  5.8411E-05  5.8335E-05  5.8078E-05  5.7780E-05  5.7526E-05
       5.7346E-05  5.7344E-05  5.7514E-05  5.7900E-05  5.8468E-05  5.9187E-05  5.9900E-05  6.0262E-05  5.9847E-05  5.8509E-05
       5.6414E-05  5.4236E-05  5.2490E-05  5.1234E-05  5.0317E-05  4.9541E-05  4.8750E-05  4.7797E-05  4.6609E-05  4.5208E-05
       4.3690E-05  4.2209E-05  4.0906E-05  3.9867E-05  3.9096E-05
  10   5.7265E-05  5.8129E-05  5.8949E-05  5.9662E-05  6.0210E-05  6.0529E-05  6.0593E-05  6.0478E-05  6.0363E-05  6.0314E-05
       6.0389E-05  6.0680E-05  6.1207E-05  6.2013E-05  6.3046E-05  6.4242E-05  6.5358E-05  6.5832E-05  6.5096E-05  6.3216E-05
       6.0619E-05  5.8000E-05  5.5888E-05  5.4355E-05  5.3251E-05  5.2345E-05  5.1422E-05  5.0310E-05  4.8939E-05  4.7351E-05
       4.5646E-05  4.3981E-05  4.2497E-05  4.1273E-05  4.0328E-05
  11   5.8612E-05  5.9633E-05  6.0601E-05  6.1448E-05  6.2118E-05  6.2560E-05  6.2756E-05  6.2803E-05  6.2864E-05  6.3008E-05
       6.3314E-05  6.3892E-05  6.4768E-05  6.5966E-05  6.7385E-05  6.8925E-05  7.0272E-05  7.0799E-05  6.9659E-05  6.7246E-05
       6.4231E-05  6.1279E-05  5.8921E-05  5.7227E-05  5.6041E-05  5.5101E-05  5.4120E-05  5.2881E-05  5.1325E-05  4.9534E-05
       4.7627E-05  4.5775E-05  4.4102E-05  4.2697E-05  4.1572E-05
  12   5.9849E-05  6.1016E-05  6.2117E-05  6.3086E-05  6.3873E-05  6.4432E-05  6.4770E-05  6.4973E-05  6.5180E-05  6.5475E-05
       6.5984E-05  6.6826E-05  6.8012E-05  6.9524E-05  7.1173E-05  7.2768E-05  7.4013E-05  7.4496E-05  7.2992E-05  7.0281E-05
       6.7009E-05  6.3864E-05  6.1412E-05  5.9698E-05  5.8573E-05  5.7717E-05  5.6766E-05  5.5438E-05  5.3714E-05  5.1702E-05
       4.9577E-05  4.7529E-05  4.5675E-05  4.4083E-05  4.2789E-05
  13   6.0947E-05  6.2238E-05  6.3454E-05  6.4526E-05  6.5411E-05  6.6074E-05  6.6528E-05  6.6873E-05  6.7181E-05  6.7600E-05
       6.8284E-05  6.9348E-05  7.0803E-05  7.2524E-05  7.4205E-05  7.5475E-05  7.6057E-05  7.5911E-05  7.4700E-05  7.2113E-05
       6.8855E-05  6.5688E-05  6.3239E-05  6.1642E-05  6.0723E-05  6.0104E-05  5.9278E-05  5.7915E-05  5.6016E-05  5.3787E-05
       5.1434E-05  4.9188E-05  4.7159E-05  4.5398E-05  4.3949E-05
  14   6.1877E-05  6.3267E-05  6.4571E-05  6.5719E-05  6.6674E-05  6.7415E-05  6.7961E-05  6.8405E-05  6.8787E-05  6.9292E-05
       7.0113E-05  7.1358E-05  7.3020E-05  7.4879E-05  7.6412E-05  7.7193E-05  7.6872E-05  7.5880E-05  7.5088E-05  7.2920E-05
       6.9877E-05  6.6818E-05  6.4457E-05  6.3008E-05  6.2399E-05  6.2173E-05  6.1589E-05  6.0219E-05  5.8144E-05  5.5689E-05
       5.3126E-05  5.0696E-05  4.8509E-05  4.6613E-05  4.5025E-05
  15   6.2608E-05  6.4069E-05  6.5427E-05  6.6615E-05  6.7603E-05  6.8388E-05  6.8992E-05  6.9474E-05  6.9897E-05  7.0464E-05
       7.1381E-05  7.2782E-05  7.4584E-05  7.6566E-05  7.8013E-05  7.8331E-05  7.7361E-05  7.6141E-05  7.5175E-05  7.3219E-05
       7.0378E-05  6.7493E-05  6.5230E-05  6.3901E-05  6.3588E-05  6.3850E-05  6.3591E-05  6.2219E-05  5.9973E-05  5.7312E-05
       5.4577E-05  5.1990E-05  4.9676E-05  4.7672E-05  4.5982E-05
  16   6.3127E-05  6.4622E-05  6.5994E-05  6.7178E-05  6.8153E-05  6.8927E-05  6.9531E-05  7.0009E-05  7.0450E-05  7.1067E-05
       7.2048E-05  7.3548E-05  7.5500E-05  7.7617E-05  7.9107E-05  7.9289E-05  7.8034E-05  7.6682E-05  7.5449E-05  7.3490E-05
       7.0770E-05  6.8017E-05  6.5812E-05  6.4513E-05  6.4342E-05  6.5105E-05  6.5202E-05  6.3768E-05  6.1360E-05  5.8550E-05
       5.5693E-05  5.3010E-05  5.0617E-05  4.8543E-05  4.6783E-05
  17   6.3426E-05  6.4907E-05  6.6257E-05  6.7386E-05  6.8290E-05  6.8993E-05  6.9533E-05  6.9982E-05  7.0422E-05  7.1069E-05
       7.2101E-05  7.3679E-05  7.5755E-05  7.8073E-05  7.9787E-05  8.0265E-05  7.8995E-05  7.7645E-05  7.6122E-05  7.4039E-05
       7.1376E-05  6.8726E-05  6.6554E-05  6.5212E-05  6.4952E-05  6.5969E-05  6.6254E-05  6.4669E-05  6.2162E-05  5.9291E-05
       5.6409E-05  5.3708E-05  5.1296E-05  4.9201E-05  4.7412E-05
  18   6.3490E-05  6.4938E-05  6.6209E-05  6.7234E-05  6.8006E-05  6.8572E-05  6.9008E-05  6.9398E-05  6.9826E-05  7.0483E-05
       7.1556E-05  7.3187E-05  7.5343E-05  7.7811E-05  7.9889E-05  8.1067E-05  8.0588E-05  7.8966E-05  7.7130E-05  7.4897E-05
       7.2306E-05  6.9767E-05  6.7636E-05  6.6291E-05  6.5953E-05  6.6476E-05  6.6394E-05  6.4794E-05  6.2293E-05  5.9482E-05
       5.6673E-05  5.4043E-05  5.1690E-05  4.9631E-05  4.7858E-05
  19   6.3319E-05  6.4707E-05  6.5864E-05  6.6732E-05  6.7309E-05  6.7691E-05  6.7980E-05  6.8296E-05  6.8695E-05  6.9352E-05
       7.0462E-05  7.2093E-05  7.4232E-05  7.6745E-05  7.9133E-05  8.0960E-05  8.1464E-05  8.0029E-05  7.8013E-05  7.5806E-05
       7.3361E-05  7.0994E-05  6.8958E-05  6.7557E-05  6.6921E-05  6.6715E-05  6.6015E-05  6.4276E-05  6.1825E-05  5.9134E-05
       5.6487E-05  5.4008E-05  5.1782E-05  4.9819E-05  4.8118E-05
  20   6.2921E-05  6.4216E-05  6.5234E-05  6.5904E-05  6.6235E-05  6.6384E-05  6.6498E-05  6.6708E-05  6.7057E-05  6.7703E-05
       6.8798E-05  7.0368E-05  7.2416E-05  7.4830E-05  7.7382E-05  7.9575E-05  8.0664E-05  7.9933E-05  7.8272E-05  7.6354E-05
       7.4214E-05  7.2093E-05  7.0204E-05  6.8674E-05  6.7559E-05  6.6582E-05  6.5233E-05  6.3265E-05  6.0854E-05  5.8324E-05
       5.5888E-05  5.3630E-05  5.1589E-05  4.9776E-05  4.8197E-05
  21   6.2292E-05  6.3478E-05  6.4330E-05  6.4773E-05  6.4825E-05  6.4703E-05  6.4620E-05  6.4705E-05  6.5004E-05  6.5597E-05
       6.6624E-05  6.8111E-05  6.9990E-05  7.2261E-05  7.4741E-05  7.7061E-05  7.8518E-05  7.8475E-05  7.7461E-05  7.6126E-05
       7.4431E-05  7.2645E-05  7.0923E-05  6.9273E-05  6.7666E-05  6.5983E-05  6.4047E-05  6.1843E-05  5.9478E-05  5.7143E-05
       5.4956E-05  5.2958E-05  5.1149E-05  4.9525E-05  4.8117E-05
  22   6.1447E-05  6.2502E-05  6.3181E-05  6.3386E-05  6.3138E-05  6.2726E-05  6.2438E-05  6.2380E-05  6.2611E-05  6.3150E-05
       6.4052E-05  6.5379E-05  6.7076E-05  6.9127E-05  7.1404E-05  7.3641E-05  7.5342E-05  7.5758E-05  7.5465E-05  7.4801E-05
       7.3699E-05  7.2315E-05  7.0775E-05  6.9063E-05  6.7098E-05  6.4841E-05  6.2456E-05  6.0076E-05  5.7785E-05  5.5666E-05
       5.3758E-05  5.2053E-05  5.0512E-05  4.9125E-05  4.7911E-05
  23   6.0401E-05  6.1305E-05  6.1818E-05  6.1802E-05  6.1253E-05  6.0554E-05  6.0076E-05  5.9907E-05  6.0048E-05  6.0493E-05
       6.1240E-05  6.2341E-05  6.3813E-05  6.5593E-05  6.7595E-05  6.9587E-05  7.1275E-05  7.2173E-05  7.2504E-05  7.2418E-05
       7.1881E-05  7.0921E-05  6.9611E-05  6.7898E-05  6.5725E-05  6.3146E-05  6.0446E-05  5.7973E-05  5.5833E-05  5.3992E-05
       5.2391E-05  5.0985E-05  4.9736E-05  4.8614E-05  4.7616E-05
  24   5.9173E-05  5.9928E-05  6.0293E-05  6.0103E-05  5.9278E-05  5.8313E-05  5.7686E-05  5.7406E-05  5.7426E-05  5.7737E-05
       5.8321E-05  5.9178E-05  6.0382E-05  6.1886E-05  6.3561E-05  6.5244E-05  6.6792E-05  6.8026E-05  6.8801E-05  6.9140E-05
       6.9024E-05  6.8440E-05  6.7385E-05  6.5779E-05  6.3593E-05  6.0882E-05  5.8031E-05  5.5610E-05  5.3709E-05  5.2200E-05
       5.0936E-05  4.9846E-05  4.8905E-05  4.8047E-05  4.7271E-05
  25   5.7782E-05  5.8376E-05  5.8596E-05  5.8292E-05  5.7283E-05  5.6114E-05  5.5374E-05  5.4966E-05  5.4846E-05  5.4990E-05
       5.5374E-05  5.6017E-05  5.6943E-05  5.8153E-05  5.9527E-05  6.0954E-05  6.2362E-05  6.3650E-05  6.4623E-05  6.5211E-05
       6.5362E-05  6.5036E-05  6.4211E-05  6.2794E-05  6.0720E-05  5.8060E-05  5.5241E-05  5.3063E-05  5.1515E-05  5.0378E-05
       4.9469E-05  4.8715E-05  4.8069E-05  4.7468E-05  4.6897E-05
  26   5.6255E-05  5.6668E-05  5.6720E-05  5.6278E-05  5.5270E-05  5.4083E-05  5.3202E-05  5.2647E-05  5.2362E-05  5.2322E-05
       5.2518E-05  5.2936E-05  5.3625E-05  5.4555E-05  5.5647E-05  5.6838E-05  5.8066E-05  5.9240E-05  6.0251E-05  6.0920E-05
       6.1183E-05  6.0994E-05  6.0315E-05  5.9084E-05  5.7215E-05  5.4775E-05  5.2201E-05  5.0464E-05  4.9354E-05  4.8616E-05
       4.8082E-05  4.7652E-05  4.7286E-05  4.6917E-05  4.6529E-05
  27   5.4632E-05  5.4857E-05  5.4748E-05  5.4209E-05  5.3232E-05  5.2097E-05  5.1142E-05  5.0453E-05  5.0012E-05  4.9796E-05
       4.9797E-05  5.0012E-05  5.0470E-05  5.1153E-05  5.2008E-05  5.2974E-05  5.4002E-05  5.5013E-05  5.5895E-05  5.6535E-05
       5.6805E-05  5.6672E-05  5.6088E-05  5.4994E-05  5.3348E-05  5.1103E-05  4.9136E-05  4.7997E-05  4.7362E-05  4.7033E-05
       4.6841E-05  4.6712E-05  4.6601E-05  4.6435E-05  4.6209E-05
  28   5.2966E-05  5.3014E-05  5.2766E-05  5.2160E-05  5.1216E-05  5.0142E-05  4.9162E-05  4.8379E-05  4.7807E-05  4.7438E-05
       4.7267E-05  4.7293E-05  4.7540E-05  4.8000E-05  4.8635E-05  4.9394E-05  5.0230E-05  5.1064E-05  5.1799E-05  5.2328E-05
       5.2566E-05  5.2450E-05  5.1944E-05  5.0975E-05  4.9514E-05  4.7740E-05  4.6509E-05  4.5878E-05  4.5655E-05  4.5676E-05
       4.5789E-05  4.5939E-05  4.6044E-05  4.6052E-05  4.5960E-05
  29   5.1301E-05  5.1191E-05  5.0834E-05  5.0173E-05  4.9262E-05  4.8237E-05  4.7258E-05  4.6416E-05  4.5749E-05  4.5256E-05
       4.4940E-05  4.4806E-05  4.4872E-05  4.5131E-05  4.5569E-05  4.6143E-05  4.6806E-05  4.7481E-05  4.8086E-05  4.8530E-05
       4.8738E-05  4.8645E-05  4.8231E-05  4.7442E-05  4.6331E-05  4.5162E-05  4.4437E-05  4.4188E-05  4.4283E-05  4.4577E-05
       4.4953E-05  4.5335E-05  4.5635E-05  4.5786E-05  4.5801E-05
  30   4.9675E-05  4.9432E-05  4.8975E-05  4.8282E-05  4.7395E-05  4.6410E-05  4.5442E-05  4.4567E-05  4.3830E-05  4.3247E-05
       4.2822E-05  4.2556E-05  4.2476E-05  4.2570E-05  4.2839E-05  4.3257E-05  4.3777E-05  4.4326E-05  4.4832E-05  4.5221E-05
       4.5421E-05  4.5401E-05  4.5132E-05  4.4591E-05  4.3884E-05  4.3219E-05  4.2883E-05  4.2911E-05  4.3236E-05  4.3750E-05
       4.4344E-05  4.4911E-05  4.5371E-05  4.5642E-05  4.5735E-05
  31   4.8113E-05  4.7757E-05  4.7223E-05  4.6504E-05  4.5635E-05  4.4685E-05  4.3732E-05  4.2845E-05  4.2064E-05  4.1416E-05
       4.0908E-05  4.0544E-05  4.0355E-05  4.0334E-05  4.0470E-05  4.0756E-05  4.1155E-05  4.1611E-05  4.2052E-05  4.2423E-05
       4.2658E-05  4.2745E-05  4.2658E-05  4.2400E-05  4.2066E-05  4.1801E-05  4.1762E-05  4.1996E-05  4.2493E-05  4.3177E-05
       4.3943E-05  4.4663E-05  4.5254E-05  4.5626E-05  4.5746E-05
  32   4.6637E-05  4.6185E-05  4.5590E-05  4.4851E-05  4.3999E-05  4.3076E-05  4.2144E-05  4.1256E-05  4.0452E-05  3.9761E-05
       3.9191E-05  3.8759E-05  3.8494E-05  3.8392E-05  3.8445E-05  3.8637E-05  3.8948E-05  3.9336E-05  3.9747E-05  4.0132E-05
       4.0447E-05  4.0661E-05  4.0772E-05  4.0789E-05  4.0772E-05  4.0822E-05  4.1025E-05  4.1403E-05  4.2010E-05  4.2847E-05
       4.3740E-05  4.4585E-05  4.5273E-05  4.5728E-05  4.5836E-05
  33   4.5257E-05  4.4727E-05  4.4084E-05  4.3333E-05  4.2494E-05  4.1599E-05  4.0688E-05  3.9808E-05  3.8999E-05  3.8286E-05
       3.7681E-05  3.7201E-05  3.6881E-05  3.6723E-05  3.6722E-05  3.6866E-05  3.7123E-05  3.7478E-05  3.7885E-05  3.8308E-05
       3.8718E-05  3.9085E-05  3.9396E-05  3.9657E-05  3.9908E-05  4.0215E-05  4.0631E-05  4.1140E-05  4.1838E-05  4.2716E-05
       4.3711E-05  4.4655E-05  4.5422E-05  4.5896E-05  4.5977E-05
  34   4.3988E-05  4.3397E-05  4.2719E-05  4.1960E-05  4.1132E-05  4.0262E-05  3.9376E-05  3.8512E-05  3.7710E-05  3.6991E-05
       3.6368E-05  3.5864E-05  3.5509E-05  3.5314E-05  3.5280E-05  3.5397E-05  3.5645E-05  3.5999E-05  3.6423E-05  3.6901E-05
       3.7411E-05  3.7930E-05  3.8431E-05  3.8910E-05  3.9389E-05  3.9912E-05  4.0518E-05  4.1191E-05  4.1940E-05  4.2838E-05
       4.3843E-05  4.4859E-05  4.5677E-05  4.6103E-05  4.6131E-05
  35   4.2831E-05  4.2196E-05  4.1493E-05  4.0729E-05  3.9915E-05  3.9070E-05  3.8211E-05  3.7370E-05  3.6584E-05  3.5873E-05
       3.5252E-05  3.4739E-05  3.4365E-05  3.4147E-05  3.4095E-05  3.4203E-05  3.4458E-05  3.4836E-05  3.5308E-05  3.5853E-05
       3.6467E-05  3.7130E-05  3.7811E-05  3.8484E-05  3.9154E-05  3.9866E-05  4.0627E-05  4.1425E-05  4.2254E-05  4.3163E-05
       4.4174E-05  4.5194E-05  4.5967E-05  4.6313E-05  4.6271E-05
  36   4.1790E-05  4.1125E-05  4.0409E-05  3.9646E-05  3.8846E-05  3.8024E-05  3.7195E-05  3.6384E-05  3.5622E-05  3.4929E-05
       3.4324E-05  3.3820E-05  3.3435E-05  3.3205E-05  3.3146E-05  3.3257E-05  3.3530E-05  3.3945E-05  3.4476E-05  3.5103E-05
       3.5824E-05  3.6620E-05  3.7456E-05  3.8300E-05  3.9139E-05  3.9999E-05  4.0889E-05  4.1782E-05  4.2683E-05  4.3624E-05
       4.4649E-05  4.5617E-05  4.6266E-05  4.6510E-05  4.6387E-05
  37   4.0859E-05  4.0182E-05  3.9462E-05  3.8706E-05  3.7923E-05  3.7125E-05  3.6326E-05  3.5551E-05  3.4818E-05  3.4155E-05
       3.3576E-05  3.3084E-05  3.2706E-05  3.2478E-05  3.2422E-05  3.2541E-05  3.2834E-05  3.3287E-05  3.3879E-05  3.4582E-05
       3.5404E-05  3.6320E-05  3.7290E-05  3.8282E-05  3.9253E-05  4.0230E-05  4.1208E-05  4.2180E-05  4.3125E-05  4.4126E-05
       4.5171E-05  4.5997E-05  4.6489E-05  4.6631E-05  4.6447E-05
  38   4.0042E-05  3.9360E-05  3.8646E-05  3.7904E-05  3.7142E-05  3.6373E-05  3.5609E-05  3.4870E-05  3.4175E-05  3.3548E-05
       3.2995E-05  3.2526E-05  3.2164E-05  3.1952E-05  3.1907E-05  3.2036E-05  3.2344E-05  3.2834E-05  3.3470E-05  3.4243E-05
       3.5151E-05  3.6171E-05  3.7231E-05  3.8291E-05  3.9349E-05  4.0408E-05  4.1451E-05  4.2475E-05  4.3477E-05  4.4494E-05
       4.5484E-05  4.6160E-05  4.6559E-05  4.6630E-05  4.6407E-05
  39   3.9330E-05  3.8654E-05  3.7953E-05  3.7230E-05  3.6495E-05  3.5758E-05  3.5031E-05  3.4330E-05  3.3677E-05  3.3090E-05
       3.2569E-05  3.2134E-05  3.1799E-05  3.1610E-05  3.1584E-05  3.1730E-05  3.2053E-05  3.2559E-05  3.3224E-05  3.4042E-05
       3.5017E-05  3.6071E-05  3.7173E-05  3.8271E-05  3.9375E-05  4.0473E-05  4.1551E-05  4.2599E-05  4.3621E-05  4.4600E-05
       4.5472E-05  4.6094E-05  4.6434E-05  4.6471E-05  4.6254E-05
  40   3.8714E-05  3.8053E-05  3.7372E-05  3.6674E-05  3.5970E-05  3.5268E-05  3.4579E-05  3.3923E-05  3.3316E-05  3.2766E-05
       3.2288E-05  3.1891E-05  3.1593E-05  3.1434E-05  3.1431E-05  3.1593E-05  3.1929E-05  3.2437E-05  3.3110E-05  3.3940E-05
       3.4927E-05  3.5977E-05  3.7079E-05  3.8185E-05  3.9291E-05  4.0401E-05  4.1488E-05  4.2535E-05  4.3534E-05  4.4451E-05
       4.5244E-05  4.5815E-05  4.6126E-05  4.6149E-05  4.5990E-05



            MULT. ARRAY: HK_Par1_M3
 READING ON UNIT    8 WITH FORMAT: (FREE)              

            1           2           3           4           5           6           7           8           9          10
           11          12          13          14          15          16          17          18          19          20
           21          22          23          24          25          26          27          28          29          30
           31          32          33          34          35
 ........................................................................................................................
   1   9.6345E-05  9.6255E-05  9.6094E-05  9.5856E-05  9.5569E-05  9.5259E-05  9.4966E-05  9.4737E-05  9.4619E-05  9.4640E-05
       9.4872E-05  9.5357E-05  9.6124E-05  9.7231E-05  9.8647E-05  1.0027E-04  1.0198E-04  1.0365E-04  1.0511E-04  1.0629E-04
       1.0716E-04  1.0773E-04  1.0802E-04  1.0814E-04  1.0820E-04  1.0828E-04  1.0842E-04  1.0867E-04  1.0903E-04  1.0948E-04
       1.0998E-04  1.1046E-04  1.1085E-04  1.1113E-04  1.1130E-04
   2   9.6422E-05  9.6321E-05  9.6137E-05  9.5863E-05  9.5527E-05  9.5156E-05  9.4800E-05  9.4521E-05  9.4379E-05  9.4407E-05
       9.4674E-05  9.5233E-05  9.6113E-05  9.7376E-05  9.8986E-05  1.0084E-04  1.0278E-04  1.0465E-04  1.0626E-04  1.0751E-04
       1.0838E-04  1.0889E-04  1.0908E-04  1.0906E-04  1.0901E-04  1.0899E-04  1.0905E-04  1.0926E-04  1.0960E-04  1.1008E-04
       1.1062E-04  1.1113E-04  1.1152E-04  1.1176E-04  1.1187E-04
   3   9.6510E-05  9.6389E-05  9.6176E-05  9.5864E-05  9.5473E-05  9.5037E-05  9.4613E-05  9.4281E-05  9.4134E-05  9.4203E-05
       9.4539E-05  9.5218E-05  9.6267E-05  9.7726E-05  9.9568E-05  1.0168E-04  1.0386E-04  1.0593E-04  1.0766E-04  1.0896E-04
       1.0983E-04  1.1025E-04  1.1031E-04  1.1016E-04  1.0997E-04  1.0983E-04  1.0982E-04  1.0997E-04  1.1029E-04  1.1078E-04
       1.1136E-04  1.1191E-04  1.1228E-04  1.1246E-04  1.1248E-04
   4   9.6612E-05  9.6469E-05  9.6221E-05  9.5856E-05  9.5405E-05  9.4898E-05  9.4396E-05  9.4024E-05  9.3875E-05  9.4010E-05
       9.4455E-05  9.5303E-05  9.6578E-05  9.8280E-05  1.0040E-04  1.0279E-04  1.0524E-04  1.0752E-04  1.0938E-04  1.1071E-04
       1.1152E-04  1.1181E-04  1.1171E-04  1.1140E-04  1.1107E-04  1.1083E-04  1.1074E-04  1.1083E-04  1.1111E-04  1.1158E-04
       1.1221E-04  1.1278E-04  1.1310E-04  1.1319E-04  1.1311E-04
   5   9.6726E-05  9.6559E-05  9.6263E-05  9.5834E-05  9.5314E-05  9.4725E-05  9.4156E-05  9.3739E-05  9.3604E-05  9.3818E-05
       9.4403E-05  9.5459E-05  9.7002E-05  9.9011E-05  1.0146E-04  1.0417E-04  1.0693E-04  1.0944E-04  1.1145E-04  1.1279E-04
       1.1350E-04  1.1359E-04  1.1329E-04  1.1280E-04  1.1232E-04  1.1198E-04  1.1181E-04  1.1184E-04  1.1208E-04  1.1250E-04
       1.1313E-04  1.1369E-04  1.1392E-04  1.1390E-04  1.1372E-04
   6   9.6843E-05  9.6647E-05  9.6300E-05  9.5801E-05  9.5186E-05  9.4500E-05  9.3857E-05  9.3412E-05  9.3300E-05  9.3608E-05
       9.4357E-05  9.5644E-05  9.7494E-05  9.9876E-05  1.0270E-04  1.0578E-04  1.0887E-04  1.1166E-04  1.1386E-04  1.1525E-04
       1.1573E-04  1.1554E-04  1.1500E-04  1.1431E-04  1.1370E-04  1.1325E-04  1.1302E-04  1.1300E-04  1.1320E-04  1.1358E-04
       1.1411E-04  1.1454E-04  1.1468E-04  1.1457E-04  1.1429E-04
   7   9.6957E-05  9.6729E-05  9.6327E-05  9.5743E-05  9.5015E-05  9.4222E-05  9.3509E-05  9.3033E-05  9.2947E-05  9.3350E-05
       9.4289E-05  9.5821E-05  9.8010E-05  1.0080E-04  1.0406E-04  1.0756E-04  1.1101E-04  1.1408E-04  1.1644E-04  1.1784E-04
       1.1806E-04  1.1758E-04  1.1678E-04  1.1590E-04  1.1516E-04  1.1463E-04  1.1435E-04  1.1430E-04  1.1445E-04  1.1475E-04
       1.1511E-04  1.1538E-04  1.1540E-04  1.1519E-04  1.1482E-04
   8   9.7068E-05  9.6807E-05  9.6337E-05  9.5658E-05  9.4811E-05  9.3899E-05  9.3108E-05  9.2593E-05  9.2520E-05  9.3011E-05
       9.4145E-05  9.5950E-05  9.8507E-05  1.0175E-04  1.0546E-04  1.0940E-04  1.1321E-04  1.1652E-04  1.1896E-04  1.2026E-04
       1.2030E-04  1.1958E-04  1.1855E-04  1.1751E-04  1.1665E-04  1.1607E-04  1.1576E-04  1.1567E-04  1.1576E-04  1.1594E-04
       1.1612E-04  1.1620E-04  1.1609E-04  1.1576E-04  1.1530E-04
   9   9.7190E-05  9.6877E-05  9.6334E-05  9.5552E-05  9.4580E-05  9.3536E-05  9.2651E-05  9.2082E-05  9.2010E-05  9.2590E-05
       9.3911E-05  9.6001E-05  9.8931E-05  1.0263E-04  1.0684E-04  1.1124E-04  1.1537E-04  1.1886E-04  1.2130E-04  1.2245E-04
       1.2233E-04  1.2142E-04  1.2022E-04  1.1905E-04  1.1813E-04  1.1752E-04  1.1719E-04  1.1708E-04  1.1708E-04  1.1712E-04
       1.1710E-04  1.1700E-04  1.1673E-04  1.1628E-04  1.1573E-04
  10   9.7296E-05  9.6931E-05  9.6314E-05  9.5427E-05  9.4326E-05  9.3147E-05  9.2138E-05  9.1486E-05  9.1393E-05  9.2057E-05
       9.3560E-05  9.5940E-05  9.9253E-05  1.0342E-04  1.0814E-04  1.1298E-04  1.1744E-04  1.2103E-04  1.2342E-04  1.2440E-04
       1.2412E-04  1.2304E-04  1.2170E-04  1.2045E-04  1.1952E-04  1.1892E-04  1.1861E-04  1.1847E-04  1.1837E-04  1.1825E-04
       1.1805E-04  1.1775E-04  1.1732E-04  1.1676E-04  1.1611E-04
  11   9.7391E-05  9.6976E-05  9.6260E-05  9.5279E-05  9.4067E-05  9.2731E-05  9.1583E-05  9.0811E-05  9.0676E-05  9.1393E-05
       9.3080E-05  9.5755E-05  9.9450E-05  1.0406E-04  1.0927E-04  1.1457E-04  1.1935E-04  1.2300E-04  1.2530E-04  1.2608E-04
       1.2560E-04  1.2438E-04  1.2294E-04  1.2167E-04  1.2077E-04  1.2023E-04  1.1996E-04  1.1979E-04  1.1960E-04  1.1930E-04
       1.1891E-04  1.1842E-04  1.1783E-04  1.1715E-04  1.1641E-04
  12   9.7466E-05  9.6988E-05  9.6187E-05  9.5104E-05  9.3772E-05  9.2315E-05  9.0988E-05  9.0054E-05  8.9852E-05  9.0608E-05
       9.2466E-05  9.5444E-05  9.9497E-05  1.0452E-04  1.1021E-04  1.1598E-04  1.2109E-04  1.2478E-04  1.2694E-04  1.2746E-04
       1.2676E-04  1.2539E-04  1.2390E-04  1.2266E-04  1.2184E-04  1.2141E-04  1.2120E-04  1.2103E-04  1.2073E-04  1.2026E-04
       1.1967E-04  1.1899E-04  1.1824E-04  1.1744E-04  1.1662E-04
  13   9.7535E-05  9.6978E-05  9.6086E-05  9.4899E-05  9.3449E-05  9.1845E-05  9.0359E-05  8.9258E-05  8.8925E-05  8.9711E-05
       9.1720E-05  9.4991E-05  9.9385E-05  1.0479E-04  1.1091E-04  1.1715E-04  1.2265E-04  1.2646E-04  1.2826E-04  1.2846E-04
       1.2756E-04  1.2609E-04  1.2458E-04  1.2341E-04  1.2274E-04  1.2246E-04  1.2235E-04  1.2217E-04  1.2174E-04  1.2108E-04
       1.2029E-04  1.1942E-04  1.1853E-04  1.1762E-04  1.1673E-04
  14   9.7613E-05  9.6998E-05  9.6003E-05  9.4681E-05  9.3097E-05  9.1390E-05  8.9744E-05  8.8437E-05  8.7960E-05  8.8754E-05
       9.0936E-05  9.4449E-05  9.9116E-05  1.0480E-04  1.1123E-04  1.1788E-04  1.2376E-04  1.2767E-04  1.2909E-04  1.2903E-04
       1.2800E-04  1.2651E-04  1.2503E-04  1.2397E-04  1.2347E-04  1.2340E-04  1.2341E-04  1.2320E-04  1.2262E-04  1.2175E-04
       1.2075E-04  1.1969E-04  1.1865E-04  1.1767E-04  1.1674E-04
  15   9.7695E-05  9.7040E-05  9.5940E-05  9.4474E-05  9.2746E-05  9.0918E-05  8.9139E-05  8.7620E-05  8.6991E-05  8.7834E-05
       9.0185E-05  9.3903E-05  9.8700E-05  1.0445E-04  1.1098E-04  1.1785E-04  1.2395E-04  1.2784E-04  1.2922E-04  1.2913E-04
       1.2816E-04  1.2677E-04  1.2540E-04  1.2444E-04  1.2407E-04  1.2424E-04  1.2438E-04  1.2410E-04  1.2333E-04  1.2223E-04
       1.2100E-04  1.1976E-04  1.1860E-04  1.1756E-04  1.1661E-04
  16   9.7786E-05  9.7097E-05  9.5890E-05  9.4254E-05  9.2344E-05  9.0357E-05  8.8476E-05  8.6798E-05  8.6094E-05  8.7036E-05
       8.9518E-05  9.3308E-05  9.8093E-05  1.0376E-04  1.1012E-04  1.1689E-04  1.2310E-04  1.2693E-04  1.2855E-04  1.2880E-04
       1.2816E-04  1.2703E-04  1.2584E-04  1.2497E-04  1.2469E-04  1.2502E-04  1.2528E-04  1.2486E-04  1.2384E-04  1.2249E-04
       1.2103E-04  1.1965E-04  1.1839E-04  1.1730E-04  1.1636E-04
  17   9.7870E-05  9.7155E-05  9.5829E-05  9.3994E-05  9.1845E-05  8.9642E-05  8.7612E-05  8.5985E-05  8.5413E-05  8.6430E-05
       8.8987E-05  9.2738E-05  9.7413E-05  1.0283E-04  1.0873E-04  1.1499E-04  1.2106E-04  1.2491E-04  1.2724E-04  1.2823E-04
       1.2819E-04  1.2748E-04  1.2653E-04  1.2576E-04  1.2545E-04  1.2582E-04  1.2607E-04  1.2540E-04  1.2411E-04  1.2251E-04
       1.2087E-04  1.1937E-04  1.1805E-04  1.1694E-04  1.1602E-04
  18   9.7936E-05  9.7202E-05  9.5746E-05  9.3677E-05  9.1252E-05  8.8800E-05  8.6658E-05  8.5156E-05  8.4798E-05  8.5955E-05
       8.8544E-05  9.2264E-05  9.6792E-05  1.0187E-04  1.0712E-04  1.1233E-04  1.1747E-04  1.2215E-04  1.2566E-04  1.2770E-04
       1.2844E-04  1.2825E-04  1.2760E-04  1.2694E-04  1.2663E-04  1.2673E-04  1.2660E-04  1.2568E-04  1.2414E-04  1.2233E-04
       1.2054E-04  1.1894E-04  1.1758E-04  1.1649E-04  1.1560E-04
  19   9.7961E-05  9.7223E-05  9.5633E-05  9.3308E-05  9.0574E-05  8.7876E-05  8.5644E-05  8.4276E-05  8.4152E-05  8.5495E-05
       8.8169E-05  9.1900E-05  9.6356E-05  1.0116E-04  1.0582E-04  1.1004E-04  1.1422E-04  1.1975E-04  1.2444E-04  1.2749E-04
       1.2901E-04  1.2934E-04  1.2899E-04  1.2844E-04  1.2800E-04  1.2767E-04  1.2702E-04  1.2574E-04  1.2395E-04  1.2196E-04
       1.2007E-04  1.1841E-04  1.1705E-04  1.1597E-04  1.1513E-04
  20   9.7915E-05  9.7193E-05  9.5487E-05  9.2900E-05  8.9835E-05  8.6879E-05  8.4578E-05  8.3350E-05  8.3459E-05  8.5013E-05
       8.7831E-05  9.1666E-05  9.6184E-05  1.0088E-04  1.0527E-04  1.0903E-04  1.1306E-04  1.1867E-04  1.2404E-04  1.2780E-04
       1.2986E-04  1.3064E-04  1.3056E-04  1.3005E-04  1.2938E-04  1.2853E-04  1.2734E-04  1.2564E-04  1.2358E-04  1.2145E-04
       1.1949E-04  1.1781E-04  1.1646E-04  1.1541E-04  1.1461E-04
  21   9.7751E-05  9.7083E-05  9.5294E-05  9.2461E-05  8.9060E-05  8.5841E-05  8.3479E-05  8.2397E-05  8.2740E-05  8.4506E-05
       8.7514E-05  9.1533E-05  9.6244E-05  1.0115E-04  1.0565E-04  1.0946E-04  1.1345E-04  1.1909E-04  1.2459E-04  1.2860E-04
       1.3093E-04  1.3197E-04  1.3207E-04  1.3155E-04  1.3058E-04  1.2921E-04  1.2749E-04  1.2538E-04  1.2306E-04  1.2081E-04
       1.1880E-04  1.1714E-04  1.1582E-04  1.1482E-04  1.1407E-04
  22   9.7417E-05  9.6848E-05  9.5035E-05  9.2004E-05  8.8261E-05  8.4773E-05  8.2371E-05  8.1440E-05  8.2036E-05  8.3988E-05
       8.7205E-05  9.1505E-05  9.6537E-05  1.0183E-04  1.0684E-04  1.1116E-04  1.1522E-04  1.2075E-04  1.2590E-04  1.2969E-04
       1.3198E-04  1.3309E-04  1.3329E-04  1.3270E-04  1.3143E-04  1.2961E-04  1.2741E-04  1.2494E-04  1.2239E-04  1.2005E-04
       1.1803E-04  1.1641E-04  1.1516E-04  1.1422E-04  1.1351E-04
  23   9.6846E-05  9.6403E-05  9.4651E-05  9.1506E-05  8.7438E-05  8.3685E-05  8.1296E-05  8.0532E-05  8.1341E-05  8.3526E-05
       8.6946E-05  9.1498E-05  9.6857E-05  1.0264E-04  1.0836E-04  1.1363E-04  1.1837E-04  1.2318E-04  1.2754E-04  1.3079E-04
       1.3285E-04  1.3386E-04  1.3405E-04  1.3332E-04  1.3181E-04  1.2965E-04  1.2706E-04  1.2428E-04  1.2158E-04  1.1918E-04
       1.1719E-04  1.1564E-04  1.1448E-04  1.1364E-04  1.1295E-04
  24   9.5956E-05  9.5638E-05  9.4012E-05  9.0903E-05  8.6581E-05  8.2629E-05  8.0339E-05  7.9746E-05  8.0708E-05  8.3071E-05
       8.6695E-05  9.1432E-05  9.7053E-05  1.0324E-04  1.0958E-04  1.1563E-04  1.2112E-04  1.2529E-04  1.2887E-04  1.3154E-04
       1.3326E-04  1.3410E-04  1.3415E-04  1.3330E-04  1.3163E-04  1.2923E-04  1.2634E-04  1.2337E-04  1.2060E-04  1.1822E-04
       1.1630E-04  1.1484E-04  1.1378E-04  1.1300E-04  1.1237E-04
  25   9.4686E-05  9.4437E-05  9.2949E-05  9.0048E-05  8.5702E-05  8.1690E-05  7.9610E-05  7.9149E-05  8.0219E-05  8.2684E-05
       8.6393E-05  9.1220E-05  9.6993E-05  1.0341E-04  1.1009E-04  1.1651E-04  1.2208E-04  1.2625E-04  1.2940E-04  1.3165E-04
       1.3305E-04  1.3364E-04  1.3349E-04  1.3258E-04  1.3082E-04  1.2828E-04  1.2521E-04  1.2219E-04  1.1945E-04  1.1716E-04
       1.1535E-04  1.1401E-04  1.1310E-04  1.1240E-04  1.1180E-04
  26   9.3021E-05  9.2756E-05  9.1322E-05  8.8560E-05  8.4698E-05  8.1102E-05  7.9106E-05  7.8732E-05  7.9846E-05  8.2301E-05
       8.5992E-05  9.0804E-05  9.6601E-05  1.0311E-04  1.0985E-04  1.1631E-04  1.2188E-04  1.2605E-04  1.2904E-04  1.3104E-04
       1.3215E-04  1.3250E-04  1.3216E-04  1.3118E-04  1.2939E-04  1.2678E-04  1.2368E-04  1.2075E-04  1.1816E-04  1.1600E-04
       1.1434E-04  1.1313E-04  1.1232E-04  1.1175E-04  1.1121E-04
  27   9.1014E-05  9.0653E-05  8.9253E-05  8.6747E-05  8.3489E-05  8.0482E-05  7.8708E-05  7.8408E-05  7.9493E-05  8.1869E-05
       8.5455E-05  9.0173E-05  9.5868E-05  1.0227E-04  1.0892E-04  1.1527E-04  1.2074E-04  1.2495E-04  1.2787E-04  1.2972E-04
       1.3063E-04  1.3079E-04  1.3028E-04  1.2915E-04  1.2737E-04  1.2479E-04  1.2184E-04  1.1916E-04  1.1678E-04  1.1481E-04
       1.1329E-04  1.1223E-04  1.1156E-04  1.1107E-04  1.1060E-04
  28   8.8748E-05  8.8281E-05  8.6933E-05  8.4752E-05  8.2107E-05  7.9687E-05  7.8225E-05  7.8014E-05  7.9052E-05  8.1305E-05
       8.4749E-05  8.9289E-05  9.4786E-05  1.0098E-04  1.0740E-04  1.1354E-04  1.1889E-04  1.2309E-04  1.2603E-04  1.2780E-04
       1.2861E-04  1.2863E-04  1.2798E-04  1.2674E-04  1.2494E-04  1.2253E-04  1.1997E-04  1.1755E-04  1.1539E-04  1.1361E-04
       1.1224E-04  1.1132E-04  1.1075E-04  1.1037E-04  1.1000E-04
  29   8.6329E-05  8.5743E-05  8.4492E-05  8.2656E-05  8.0551E-05  7.8679E-05  7.7565E-05  7.7470E-05  7.8460E-05  8.0590E-05
       8.3855E-05  8.8162E-05  9.3394E-05  9.9283E-05  1.0541E-04  1.1130E-04  1.1649E-04  1.2065E-04  1.2364E-04  1.2545E-04
       1.2621E-04  1.2618E-04  1.2546E-04  1.2419E-04  1.2243E-04  1.2034E-04  1.1813E-04  1.1600E-04  1.1408E-04  1.1249E-04
       1.1126E-04  1.1047E-04  1.1004E-04  1.0972E-04  1.0942E-04
  30   8.3869E-05  8.3152E-05  8.1995E-05  8.0473E-05  7.8839E-05  7.7452E-05  7.6661E-05  7.6732E-05  7.7694E-05  7.9698E-05
       8.2750E-05  8.6790E-05  9.1707E-05  9.7249E-05  1.0305E-04  1.0869E-04  1.1373E-04  1.1786E-04  1.2088E-04  1.2277E-04
       1.2362E-04  1.2358E-04  1.2288E-04  1.2168E-04  1.2003E-04  1.1826E-04  1.1638E-04  1.1454E-04  1.1286E-04  1.1146E-04
       1.1039E-04  1.0972E-04  1.0939E-04  1.0912E-04  1.0887E-04
  31   8.1467E-05  8.0639E-05  7.9557E-05  7.8300E-05  7.7064E-05  7.6082E-05  7.5578E-05  7.5759E-05  7.6736E-05  7.8619E-05
       8.1452E-05  8.5201E-05  8.9770E-05  9.4973E-05  1.0046E-04  1.0585E-04  1.1077E-04  1.1486E-04  1.1793E-04  1.1992E-04
       1.2088E-04  1.2097E-04  1.2037E-04  1.1925E-04  1.1779E-04  1.1631E-04  1.1474E-04  1.1317E-04  1.1173E-04  1.1052E-04
       1.0962E-04  1.0907E-04  1.0882E-04  1.0859E-04  1.0836E-04
  32   7.9200E-05  7.8277E-05  7.7255E-05  7.6213E-05  7.5296E-05  7.4652E-05  7.4384E-05  7.4663E-05  7.5634E-05  7.7398E-05
       8.0009E-05  8.3465E-05  8.7718E-05  9.2574E-05  9.7760E-05  1.0294E-04  1.0773E-04  1.1179E-04  1.1490E-04  1.1699E-04
       1.1808E-04  1.1833E-04  1.1789E-04  1.1691E-04  1.1570E-04  1.1449E-04  1.1320E-04  1.1189E-04  1.1066E-04  1.0964E-04
       1.0888E-04  1.0847E-04  1.0827E-04  1.0809E-04  1.0789E-04
  33   7.7122E-05  7.6131E-05  7.5150E-05  7.4271E-05  7.3631E-05  7.3241E-05  7.3163E-05  7.3514E-05  7.4462E-05  7.6096E-05
       7.8499E-05  8.1686E-05  8.5619E-05  9.0143E-05  9.5046E-05  1.0002E-04  1.0471E-04  1.0874E-04  1.1188E-04  1.1406E-04
       1.1528E-04  1.1569E-04  1.1545E-04  1.1473E-04  1.1376E-04  1.1278E-04  1.1174E-04  1.1065E-04  1.0964E-04  1.0878E-04
       1.0813E-04  1.0779E-04  1.0769E-04  1.0759E-04  1.0743E-04
  34   7.5273E-05  7.4234E-05  7.3287E-05  7.2540E-05  7.2106E-05  7.1932E-05  7.1980E-05  7.2381E-05  7.3289E-05  7.4813E-05
       7.7011E-05  7.9941E-05  8.3554E-05  8.7755E-05  9.2375E-05  9.7161E-05  1.0175E-04  1.0576E-04  1.0892E-04  1.1117E-04
       1.1251E-04  1.1309E-04  1.1306E-04  1.1262E-04  1.1192E-04  1.1115E-04  1.1032E-04  1.0946E-04  1.0863E-04  1.0792E-04
       1.0737E-04  1.0709E-04  1.0707E-04  1.0706E-04  1.0697E-04
  35   7.3677E-05  7.2618E-05  7.1710E-05  7.1054E-05  7.0781E-05  7.0759E-05  7.0891E-05  7.1325E-05  7.2186E-05  7.3599E-05
       7.5615E-05  7.8282E-05  8.1588E-05  8.5471E-05  8.9810E-05  9.4401E-05  9.8903E-05  1.0288E-04  1.0604E-04  1.0834E-04
       1.0980E-04  1.1055E-04  1.1075E-04  1.1055E-04  1.1011E-04  1.0955E-04  1.0893E-04  1.0827E-04  1.0763E-04  1.0705E-04
       1.0659E-04  1.0637E-04  1.0643E-04  1.0652E-04  1.0652E-04
  36   7.2336E-05  7.1295E-05  7.0445E-05  6.9879E-05  6.9667E-05  6.9711E-05  6.9919E-05  7.0372E-05  7.1204E-05  7.2510E-05
       7.4350E-05  7.6777E-05  7.9798E-05  8.3368E-05  8.7411E-05  9.1786E-05  9.6201E-05  1.0013E-04  1.0328E-04  1.0560E-04
       1.0717E-04  1.0809E-04  1.0849E-04  1.0852E-04  1.0832E-04  1.0797E-04  1.0754E-04  1.0707E-04  1.0661E-04  1.0618E-04
       1.0580E-04  1.0563E-04  1.0577E-04  1.0594E-04  1.0602E-04
  37   7.1248E-05  7.0249E-05  6.9464E-05  6.8968E-05  6.8784E-05  6.8847E-05  6.9095E-05  6.9563E-05  7.0366E-05  7.1579E-05
       7.3270E-05  7.5486E-05  7.8246E-05  8.1516E-05  8.5249E-05  8.9370E-05  9.3669E-05  9.7543E-05  1.0065E-04  1.0298E-04
       1.0465E-04  1.0572E-04  1.0631E-04  1.0656E-04  1.0656E-04  1.0641E-04  1.0617E-04  1.0588E-04  1.0557E-04  1.0528E-04
       1.0499E-04  1.0490E-04  1.0512E-04  1.0534E-04  1.0547E-04
  38   7.0395E-05  6.9457E-05  6.8741E-05  6.8295E-05  6.8124E-05  6.8193E-05  6.8455E-05  6.8933E-05  6.9709E-05  7.0855E-05
       7.2421E-05  7.4458E-05  7.6985E-05  7.9976E-05  8.3413E-05  8.7231E-05  9.1328E-05  9.5135E-05  9.8178E-05  1.0052E-04
       1.0226E-04  1.0346E-04  1.0424E-04  1.0466E-04  1.0486E-04  1.0489E-04  1.0481E-04  1.0468E-04  1.0452E-04  1.0435E-04
       1.0420E-04  1.0422E-04  1.0447E-04  1.0472E-04  1.0487E-04
  39   6.9755E-05  6.8894E-05  6.8244E-05  6.7842E-05  6.7683E-05  6.7754E-05  6.8021E-05  6.8506E-05  6.9266E-05  7.0361E-05
       7.1831E-05  7.3723E-05  7.6050E-05  7.8804E-05  8.1979E-05  8.5521E-05  8.9294E-05  9.2890E-05  9.5870E-05  9.8213E-05
       1.0001E-04  1.0134E-04  1.0227E-04  1.0285E-04  1.0322E-04  1.0342E-04  1.0349E-04  1.0350E-04  1.0347E-04  1.0342E-04
       1.0342E-04  1.0358E-04  1.0382E-04  1.0406E-04  1.0422E-04
  40   6.9305E-05  6.8530E-05  6.7948E-05  6.7588E-05  6.7447E-05  6.7524E-05  6.7796E-05  6.8289E-05  6.9042E-05  7.0100E-05
       7.1499E-05  7.3275E-05  7.5439E-05  7.7990E-05  8.0921E-05  8.4181E-05  8.7621E-05  9.0925E-05  9.3773E-05  9.6093E-05
       9.7934E-05  9.9350E-05  1.0041E-04  1.0115E-04  1.0166E-04  1.0200E-04  1.0221E-04  1.0235E-04  1.0244E-04  1.0252E-04
       1.0264E-04  1.0287E-04  1.0312E-04  1.0336E-04  1.0456E-04



             ZONE ARRAY: HK_Par1_Z1
 READING ON UNIT   13 WITH FORMAT: (FREE)              



             ZONE ARRAY: HK_Par1_Z2
 READING ON UNIT   13 WITH FORMAT: (FREE)              



             ZONE ARRAY: HK_Par1_Z3
 READING ON UNIT   13 WITH FORMAT: (FREE)              

 LPF -- LAYER-PROPERTY FLOW PACKAGE, VERSION 7, 5/2/2005
         INPUT READ FROM UNIT   11
 # LPF: Layer Property Flow package file
 CELL-BY-CELL FLOWS WILL BE SAVED ON UNIT   50
 HEAD AT CELLS THAT CONVERT TO DRY=   999.00    
     1 Named Parameters     

   LAYER FLAGS:
 LAYER       LAYTYP        LAYAVG         CHANI        LAYVKA        LAYWET
 ---------------------------------------------------------------------------
    1             0             0     1.000E+00             1             0
    2             0             0     1.000E+00             1             0
    3             0             0     1.000E+00             1             0

   INTERPRETATION OF LAYER FLAGS:
                        INTERBLOCK     HORIZONTAL    DATA IN
         LAYER TYPE   TRANSMISSIVITY   ANISOTROPY   ARRAY VKA   WETTABILITY
 LAYER      (LAYTYP)      (LAYAVG)       (CHANI)      (LAYVKA)      (LAYWET)
 ---------------------------------------------------------------------------
    1      CONFINED      HARMONIC     1.000E+00    ANISOTROPY  NON-WETTABLE
    2      CONFINED      HARMONIC     1.000E+00    ANISOTROPY  NON-WETTABLE
    3      CONFINED      HARMONIC     1.000E+00    ANISOTROPY  NON-WETTABLE

 WETTING CAPABILITY IS NOT ACTIVE IN ANY LAYER

 PARAMETERS DEFINED IN THE LPF PACKAGE

 PARAMETER NAME:HK_Par1      TYPE:HK     CLUSTERS:   3
 Parameter value from package file is:    1.0000    
                LAYER:   1    MULTIPLIER ARRAY: HK_Par1_M1    ZONE ARRAY: HK_Par1_Z1
                ZONE VALUES:    1
                LAYER:   2    MULTIPLIER ARRAY: HK_Par1_M2    ZONE ARRAY: HK_Par1_Z2
                ZONE VALUES:    1
                LAYER:   3    MULTIPLIER ARRAY: HK_Par1_M3    ZONE ARRAY: HK_Par1_Z3
                ZONE VALUES:    1

    HYD. COND. ALONG ROWS FOR LAYER   1 WILL BE DEFINED BY PARAMETERS
 (PRINT FLAG=  -1)

    HYD. COND. ALONG ROWS is defined by the following parameters:
 HK_Par1   


              HYD. COND. ALONG ROWS FOR LAYER   1

  HORIZ. TO VERTICAL ANI. =   1.00000     FOR LAYER   1

    HYD. COND. ALONG ROWS FOR LAYER   2 WILL BE DEFINED BY PARAMETERS
 (PRINT FLAG=  -1)

    HYD. COND. ALONG ROWS is defined by the following parameters:
 HK_Par1   


              HYD. COND. ALONG ROWS FOR LAYER   2

  HORIZ. TO VERTICAL ANI. =   1.00000     FOR LAYER   2

    HYD. COND. ALONG ROWS FOR LAYER   3 WILL BE DEFINED BY PARAMETERS
 (PRINT FLAG=  -1)

    HYD. COND. ALONG ROWS is defined by the following parameters:
 HK_Par1   


              HYD. COND. ALONG ROWS FOR LAYER   3

  HORIZ. TO VERTICAL ANI. =   1.00000     FOR LAYER   3

 WEL -- WELL PACKAGE, VERSION 7, 5/2/2005 INPUT READ FROM UNIT   12
 # WEL: Well package file
 No named parameters
 MAXIMUM OF      3 ACTIVE WELLS AT ONE TIME
 CELL-BY-CELL FLOWS WILL BE SAVED ON UNIT   54


     0 Well parameters

 CHD -- TIME-VARIANT SPECIFIED-HEAD OPTION, VERSION 7, 5/2/2005
 INPUT READ FROM UNIT   40
 # CHD: Time-Variant Specified-Head package file created
 No named parameters
 MAXIMUM OF    240 TIME-VARIANT SPECIFIED-HEAD CELLS AT ONE TIME
 AUXILIARY CHD VARIABLE: IFACE           


     0 TIME-VARIANT SPECIFIED-HEAD PARAMETERS

 PCG -- CONJUGATE-GRADIENT SOLUTION PACKAGE, VERSION 7, 5/2/2005
 MAXIMUM OF   1000 CALLS OF SOLUTION ROUTINE
 MAXIMUM OF     40 INTERNAL ITERATIONS PER CALL TO SOLUTION ROUTINE
 MATRIX PRECONDITIONING TYPE :    1



                                    SOLUTION BY THE CONJUGATE-GRADIENT METHOD
                                   -------------------------------------------
                    MAXIMUM NUMBER OF CALLS TO PCG ROUTINE =     1000
                        MAXIMUM ITERATIONS PER CALL TO PCG =       40
                               MATRIX PRECONDITIONING TYPE =        1
        RELAXATION FACTOR (ONLY USED WITH PRECOND. TYPE 1) =    0.10000E+01
 PARAMETER OF POLYNOMIAL PRECOND. = 2 (2) OR IS CALCULATED :        2
                         HEAD CHANGE CRITERION FOR CLOSURE =    0.10000E-05
                     RESIDUAL CHANGE CRITERION FOR CLOSURE =    0.10000E-05
            PCG HEAD AND RESIDUAL CHANGE PRINTOUT INTERVAL =        5
     PRINTING FROM SOLVER IS LIMITED(1) OR SUPPRESSED (>1) =        0
                                         DAMPING PARAMETER =    0.10000E+01

 OBS2BAS7 -- HEAD OBSERVATIONS, VERSION 2.0, 2/28/2006
 INPUT READ FROM UNIT  18
 # HOB: Head Observation package file

 NUMBER OF HEADS....................................:   36
   NUMBER OF MULTILAYER HEADS.......................:    0
   MAXIMUM NUMBER OF LAYERS FOR MULTILAYER HEADS....:    2
 HEAD OBSERVATIONS WILL BE SAVED ON UNIT............:   14
 SIMULATED EQUIVALENT HEAD AT DRY CELLS WILL BE:    999.000    

 OBSERVED HEAD DATA -- TIME OFFSETS ARE MULTIPLIED BY:   1.0000    

                    REFER.
       OBSERVATION  STRESS    TIME
  OBS#    NAME      PERIOD   OFFSET    OBSERVATION
     1 obs1_01          1    1.000       0.000    
     2 obs1_02          1    1.000       0.000    
     3 obs1_03          1    1.000       0.000    
     4 obs1_04          1    1.000       0.000    
     5 obs1_05          1    1.000       0.000    
     6 obs1_06          1    1.000       0.000    
     7 obs1_07          1    1.000       0.000    
     8 obs1_08          1    1.000       0.000    
     9 obs1_09          1    1.000       0.000    
    10 obs1_10          1    1.000       0.000    
    11 obs1_11          1    1.000       0.000    
    12 obs1_12          1    1.000       0.000    
    13 obs2_01          1    1.000       0.000    
    14 obs2_02          1    1.000       0.000    
    15 obs2_03          1    1.000       0.000    
    16 obs2_04          1    1.000       0.000    
    17 obs2_05          1    1.000       0.000    
    18 obs2_06          1    1.000       0.000    
    19 obs2_07          1    1.000       0.000    
    20 obs2_08          1    1.000       0.000    
    21 obs2_09          1    1.000       0.000    
    22 obs2_10          1    1.000       0.000    
    23 obs2_11          1    1.000       0.000    
    24 obs2_12          1    1.000       0.000    
    25 obs3_01          1    1.000       0.000    
    26 obs3_02          1    1.000       0.000    
    27 obs3_03          1    1.000       0.000    
    28 obs3_04          1    1.000       0.000    
    29 obs3_05          1    1.000       0.000    
    30 obs3_06          1    1.000       0.000    
    31 obs3_07          1    1.000       0.000    
    32 obs3_08          1    1.000       0.000    
    33 obs3_09          1    1.000       0.000    
    34 obs3_10          1    1.000       0.000    
    35 obs3_11          1    1.000       0.000    
    36 obs3_12          1    1.000       0.000    

                                                     HEAD CHANGE
                                                      REFERENCE
        OBSERVATION                   ROW     COL    OBSERVATION
  OBS#     NAME       LAY  ROW  COL  OFFSET  OFFSET   (IF > 0)
     1  obs1_01         1    5    5   0.000   0.000        0
     2  obs1_02         1    5   31   0.000   0.000        0
     3  obs1_03         1   16    8   0.000   0.000        0
     4  obs1_04         1   17   26   0.000   0.000        0
     5  obs1_05         1   35    5   0.000   0.000        0
     6  obs1_06         1   37   31   0.000   0.000        0
     7  obs1_07         1   23   17   0.000   0.000        0
     8  obs1_08         1    6   20   0.000   0.000        0
     9  obs1_09         1   25    5   0.000   0.000        0
    10  obs1_10         1   27   26   0.000   0.000        0
    11  obs1_11         1   38   17   0.000   0.000        0
    12  obs1_12         1   13   18   0.000   0.000        0
    13  obs2_01         2    5    5   0.000   0.000        0
    14  obs2_02         2    5   31   0.000   0.000        0
    15  obs2_03         2   16    8   0.000   0.000        0
    16  obs2_04         2   17   26   0.000   0.000        0
    17  obs2_05         2   35    5   0.000   0.000        0
    18  obs2_06         2   37   31   0.000   0.000        0
    19  obs2_07         2   23   17   0.000   0.000        0
    20  obs2_08         2    6   20   0.000   0.000        0
    21  obs2_09         2   25    5   0.000   0.000        0
    22  obs2_10         2   27   26   0.000   0.000        0
    23  obs2_11         2   38   17   0.000   0.000        0
    24  obs2_12         2   13   18   0.000   0.000        0
    25  obs3_01         3    5    5   0.000   0.000        0
    26  obs3_02         3    5   31   0.000   0.000        0
    27  obs3_03         3   16    8   0.000   0.000        0
    28  obs3_04         3   17   26   0.000   0.000        0
    29  obs3_05         3   35    5   0.000   0.000        0
    30  obs3_06         3   37   31   0.000   0.000        0
    31  obs3_07         3   23   17   0.000   0.000        0
    32  obs3_08         3    6   20   0.000   0.000        0
    33  obs3_09         3   25    5   0.000   0.000        0
    34  obs3_10         3   27   26   0.000   0.000        0
    35  obs3_11         3   38   17   0.000   0.000        0
    36  obs3_12         3   13   18   0.000   0.000        0
1
                            STRESS PERIOD NO.    1, LENGTH =   1.000000    
                            -----------------------------------------------

                              NUMBER OF TIME STEPS =     1

                               MULTIPLIER FOR DELT =     1.000

                            INITIAL TIME STEP SIZE =   1.000000    

 WELL NO.  LAYER   ROW   COL   STRESS RATE         
 --------------------------------------------------
      1      1     18     17     -0.1500E-01
      2      2     18     17     -0.1500E-01
      3      3     18     17     -0.1500E-01

      3 WELLS

 CHD NO.   LAYER   ROW   COL    START HEAD        END HEAD         IFACE           
 ----------------------------------------------------------------------------------
      1      1      1      1       60.00           60.00           0.000    
      2      2      1      1       60.00           60.00           0.000    
      3      3      1      1       60.00           60.00           0.000    
      4      1      2      1       60.00           60.00           0.000    
      5      2      2      1       60.00           60.00           0.000    
      6      3      2      1       60.00           60.00           0.000    
      7      1      3      1       60.00           60.00           0.000    
      8      2      3      1       60.00           60.00           0.000    
      9      3      3      1       60.00           60.00           0.000    
     10      1      4      1       60.00           60.00           0.000    
     11      2      4      1       60.00           60.00           0.000    
     12      3      4      1       60.00           60.00           0.000    
     13      1      5      1       60.00           60.00           0.000    
     14      2      5      1       60.00           60.00           0.000    
     15      3      5      1       60.00           60.00           0.000    
     16      1      6      1       60.00           60.00           0.000    
     17      2      6      1       60.00           60.00           0.000    
     18      3      6      1       60.00           60.00           0.000    
     19      1      7      1       60.00           60.00           0.000    
     20      2      7      1       60.00           60.00           0.000    
     21      3      7      1       60.00           60.00           0.000    
     22      1      8      1       60.00           60.00           0.000    
     23      2      8      1       60.00           60.00           0.000    
     24      3      8      1       60.00           60.00           0.000    
     25      1      9      1       60.00           60.00           0.000    
     26      2      9      1       60.00           60.00           0.000    
     27      3      9      1       60.00           60.00           0.000    
     28      1     10      1       60.00           60.00           0.000    
     29      2     10      1       60.00           60.00           0.000    
     30      3     10      1       60.00           60.00           0.000    
     31      1     11      1       60.00           60.00           0.000    
     32      2     11      1       60.00           60.00           0.000    
     33      3     11      1       60.00           60.00           0.000    
     34      1     12      1       60.00           60.00           0.000    
     35      2     12      1       60.00           60.00           0.000    
     36      3     12      1       60.00           60.00           0.000    
     37      1     13      1       60.00           60.00           0.000    
     38      2     13      1       60.00           60.00           0.000    
     39      3     13      1       60.00           60.00           0.000    
     40      1     14      1       60.00           60.00           0.000    
     41      2     14      1       60.00           60.00           0.000    
     42      3     14      1       60.00           60.00           0.000    
     43      1     15      1       60.00           60.00           0.000    
     44      2     15      1       60.00           60.00           0.000    
     45      3     15      1       60.00           60.00           0.000    
     46      1     16      1       60.00           60.00           0.000    
     47      2     16      1       60.00           60.00           0.000    
     48      3     16      1       60.00           60.00           0.000    
     49      1     17      1       60.00           60.00           0.000    
     50      2     17      1       60.00           60.00           0.000    
     51      3     17      1       60.00           60.00           0.000    
     52      1     18      1       60.00           60.00           0.000    
     53      2     18      1       60.00           60.00           0.000    
     54      3     18      1       60.00           60.00           0.000    
     55      1     19      1       60.00           60.00           0.000    
     56      2     19      1       60.00           60.00           0.000    
     57      3     19      1       60.00           60.00           0.000    
     58      1     20      1       60.00           60.00           0.000    
     59      2     20      1       60.00           60.00           0.000    
     60      3     20      1       60.00           60.00           0.000    
     61      1     21      1       60.00           60.00           0.000    
     62      2     21      1       60.00           60.00           0.000    
     63      3     21      1       60.00           60.00           0.000    
     64      1     22      1       60.00           60.00           0.000    
     65      2     22      1       60.00           60.00           0.000    
     66      3     22      1       60.00           60.00           0.000    
     67      1     23      1       60.00           60.00           0.000    
     68      2     23      1       60.00           60.00           0.000    
     69      3     23      1       60.00           60.00           0.000    
     70      1     24      1       60.00           60.00           0.000    
     71      2     24      1       60.00           60.00           0.000    
     72      3     24      1       60.00           60.00           0.000    
     73      1     25      1       60.00           60.00           0.000    
     74      2     25      1       60.00           60.00           0.000    
     75      3     25      1       60.00           60.00           0.000    
     76      1     26      1       60.00           60.00           0.000    
     77      2     26      1       60.00           60.00           0.000    
     78      3     26      1       60.00           60.00           0.000    
     79      1     27      1       60.00           60.00           0.000    
     80      2     27      1       60.00           60.00           0.000    
     81      3     27      1       60.00           60.00           0.000    
     82      1     28      1       60.00           60.00           0.000    
     83      2     28      1       60.00           60.00           0.000    
     84      3     28      1       60.00           60.00           0.000    
     85      1     29      1       60.00           60.00           0.000    
     86      2     29      1       60.00           60.00           0.000    
     87      3     29      1       60.00           60.00           0.000    
     88      1     30      1       60.00           60.00           0.000    
     89      2     30      1       60.00           60.00           0.000    
     90      3     30      1       60.00           60.00           0.000    
     91      1     31      1       60.00           60.00           0.000    
     92      2     31      1       60.00           60.00           0.000    
     93      3     31      1       60.00           60.00           0.000    
     94      1     32      1       60.00           60.00           0.000    
     95      2     32      1       60.00           60.00           0.000    
     96      3     32      1       60.00           60.00           0.000    
     97      1     33      1       60.00           60.00           0.000    
     98      2     33      1       60.00           60.00           0.000    
     99      3     33      1       60.00           60.00           0.000    
    100      1     34      1       60.00           60.00           0.000    
    101      2     34      1       60.00           60.00           0.000    
    102      3     34      1       60.00           60.00           0.000    
    103      1     35      1       60.00           60.00           0.000    
    104      2     35      1       60.00           60.00           0.000    
    105      3     35      1       60.00           60.00           0.000    
    106      1     36      1       60.00           60.00           0.000    
    107      2     36      1       60.00           60.00           0.000    
    108      3     36      1       60.00           60.00           0.000    
    109      1     37      1       60.00           60.00           0.000    
    110      2     37      1       60.00           60.00           0.000    
    111      3     37      1       60.00           60.00           0.000    
    112      1     38      1       60.00           60.00           0.000    
    113      2     38      1       60.00           60.00           0.000    
    114      3     38      1       60.00           60.00           0.000    
    115      1     39      1       60.00           60.00           0.000    
    116      2     39      1       60.00           60.00           0.000    
    117      3     39      1       60.00           60.00           0.000    
    118      1     40      1       60.00           60.00           0.000    
    119      2     40      1       60.00           60.00           0.000    
    120      3     40      1       60.00           60.00           0.000    
    121      1      1     35       58.00           58.00           0.000    
    122      2      1     35       58.00           58.00           0.000    
    123      3      1     35       58.00           58.00           0.000    
    124      1      2     35       58.00           58.00           0.000    
    125      2      2     35       58.00           58.00           0.000    
    126      3      2     35       58.00           58.00           0.000    
    127      1      3     35       58.00           58.00           0.000    
    128      2      3     35       58.00           58.00           0.000    
    129      3      3     35       58.00           58.00           0.000    
    130      1      4     35       58.00           58.00           0.000    
    131      2      4     35       58.00           58.00           0.000    
    132      3      4     35       58.00           58.00           0.000    
    133      1      5     35       58.00           58.00           0.000    
    134      2      5     35       58.00           58.00           0.000    
    135      3      5     35       58.00           58.00           0.000    
    136      1      6     35       58.00           58.00           0.000    
    137      2      6     35       58.00           58.00           0.000    
    138      3      6     35       58.00           58.00           0.000    
    139      1      7     35       58.00           58.00           0.000    
    140      2      7     35       58.00           58.00           0.000    
    141      3      7     35       58.00           58.00           0.000    
    142      1      8     35       58.00           58.00           0.000    
    143      2      8     35       58.00           58.00           0.000    
    144      3      8     35       58.00           58.00           0.000    
    145      1      9     35       58.00           58.00           0.000    
    146      2      9     35       58.00           58.00           0.000    
    147      3      9     35       58.00           58.00           0.000    
    148      1     10     35       58.00           58.00           0.000    
    149      2     10     35       58.00           58.00           0.000    
    150      3     10     35       58.00           58.00           0.000    
    151      1     11     35       58.00           58.00           0.000    
    152      2     11     35       58.00           58.00           0.000    
    153      3     11     35       58.00           58.00           0.000    
    154      1     12     35       58.00           58.00           0.000    
    155      2     12     35       58.00           58.00           0.000    
    156      3     12     35       58.00           58.00           0.000    
    157      1     13     35       58.00           58.00           0.000    
    158      2     13     35       58.00           58.00           0.000    
    159      3     13     35       58.00           58.00           0.000    
    160      1     14     35       58.00           58.00           0.000    
    161      2     14     35       58.00           58.00           0.000    
    162      3     14     35       58.00           58.00           0.000    
    163      1     15     35       58.00           58.00           0.000    
    164      2     15     35       58.00           58.00           0.000    
    165      3     15     35       58.00           58.00           0.000    
    166      1     16     35       58.00           58.00           0.000    
    167      2     16     35       58.00           58.00           0.000    
    168      3     16     35       58.00           58.00           0.000    
    169      1     17     35       58.00           58.00           0.000    
    170      2     17     35       58.00           58.00           0.000    
    171      3     17     35       58.00           58.00           0.000    
    172      1     18     35       58.00           58.00           0.000    
    173      2     18     35       58.00           58.00           0.000    
    174      3     18     35       58.00           58.00           0.000    
    175      1     19     35       58.00           58.00           0.000    
    176      2     19     35       58.00           58.00           0.000    
    177      3     19     35       58.00           58.00           0.000    
    178      1     20     35       58.00           58.00           0.000    
    179      2     20     35       58.00           58.00           0.000    
    180      3     20     35       58.00           58.00           0.000    
    181      1     21     35       58.00           58.00           0.000    
    182      2     21     35       58.00           58.00           0.000    
    183      3     21     35       58.00           58.00           0.000    
    184      1     22     35       58.00           58.00           0.000    
    185      2     22     35       58.00           58.00           0.000    
    186      3     22     35       58.00           58.00           0.000    
    187      1     23     35       58.00           58.00           0.000    
    188      2     23     35       58.00           58.00           0.000    
    189      3     23     35       58.00           58.00           0.000    
    190      1     24     35       58.00           58.00           0.000    
    191      2     24     35       58.00           58.00           0.000    
    192      3     24     35       58.00           58.00           0.000    
    193      1     25     35       58.00           58.00           0.000    
    194      2     25     35       58.00           58.00           0.000    
    195      3     25     35       58.00           58.00           0.000    
    196      1     26     35       58.00           58.00           0.000    
    197      2     26     35       58.00           58.00           0.000    
    198      3     26     35       58.00           58.00           0.000    
    199      1     27     35       58.00           58.00           0.000    
    200      2     27     35       58.00           58.00           0.000    
    201      3     27     35       58.00           58.00           0.000    
    202      1     28     35       58.00           58.00           0.000    
    203      2     28     35       58.00           58.00           0.000    
    204      3     28     35       58.00           58.00           0.000    
    205      1     29     35       58.00           58.00           0.000    
    206      2     29     35       58.00           58.00           0.000    
    207      3     29     35       58.00           58.00           0.000    
    208      1     30     35       58.00           58.00           0.000    
    209      2     30     35       58.00           58.00           0.000    
    210      3     30     35       58.00           58.00           0.000    
    211      1     31     35       58.00           58.00           0.000    
    212      2     31     35       58.00           58.00           0.000    
    213      3     31     35       58.00           58.00           0.000    
    214      1     32     35       58.00           58.00           0.000    
    215      2     32     35       58.00           58.00           0.000    
    216      3     32     35       58.00           58.00           0.000    
    217      1     33     35       58.00           58.00           0.000    
    218      2     33     35       58.00           58.00           0.000    
    219      3     33     35       58.00           58.00           0.000    
    220      1     34     35       58.00           58.00           0.000    
    221      2     34     35       58.00           58.00           0.000    
    222      3     34     35       58.00           58.00           0.000    
    223      1     35     35       58.00           58.00           0.000    
    224      2     35     35       58.00           58.00           0.000    
    225      3     35     35       58.00           58.00           0.000    
    226      1     36     35       58.00           58.00           0.000    
    227      2     36     35       58.00           58.00           0.000    
    228      3     36     35       58.00           58.00           0.000    
    229      1     37     35       58.00           58.00           0.000    
    230      2     37     35       58.00           58.00           0.000    
    231      3     37     35       58.00           58.00           0.000    
    232      1     38     35       58.00           58.00           0.000    
    233      2     38     35       58.00           58.00           0.000    
    234      3     38     35       58.00           58.00           0.000    
    235      1     39     35       58.00           58.00           0.000    
    236      2     39     35       58.00           58.00           0.000    
    237      3     39     35       58.00           58.00           0.000    
    238      1     40     35       58.00           58.00           0.000    
    239      2     40     35       58.00           58.00           0.000    
    240      3     40     35       58.00           58.00           0.000    


    240 TIME-VARIANT SPECIFIED-HEAD CELLS
 
 SOLVING FOR HEAD 


     2 CALLS TO PCG ROUTINE FOR TIME STEP   1 IN STRESS PERIOD    1
    38 TOTAL ITERATIONS

 MAXIMUM HEAD CHANGE FOR EACH ITERATION (1 INDICATES THE FIRST INNER ITERATION):

    HEAD CHANGE    HEAD CHANGE    HEAD CHANGE    HEAD CHANGE    HEAD CHANGE 
   LAYER,ROW,COL  LAYER,ROW,COL  LAYER,ROW,COL  LAYER,ROW,COL  LAYER,ROW,COL
 ---------------------------------------------------------------------------
  1  -7.727      0   3.319      0  -1.232      0  0.8444      0 -0.5244    
   (  2, 18, 17)  (  2, 29, 24)  (  2, 18, 21)  (  2,  1, 14)  (  2, 16, 25)
  0 -0.4890      0 -0.3759      0 -0.2766      0  0.1250      0 -0.7177E-01
   (  2, 18, 17)  (  2, 18, 17)  (  2, 18, 17)  (  2, 38, 23)  (  2, 19, 16)
  0 -0.4498E-01  0  0.2842E-01  0  0.1513E-01  0 -0.1025E-01  0  0.6237E-02
   (  3, 14, 22)  (  3, 22, 24)  (  3, 26, 19)  (  2,  8, 24)  (  3, 35, 22)
  0  0.4937E-02  0 -0.1767E-02  0 -0.1688E-02  0  0.1958E-02  0 -0.1310E-02
   (  2, 40, 18)  (  2, 38, 20)  (  2, 36, 15)  (  2, 37, 20)  (  2, 34, 27)
  0  0.9269E-03  0 -0.5111E-03  0  0.3398E-03  0  0.2345E-03  0 -0.1728E-03
   (  2, 17, 19)  (  2,  7, 26)  (  2, 13, 28)  (  2, 15, 23)  (  2, 10, 25)
  0  0.8303E-04  0  0.4283E-04  0 -0.2580E-04  0 -0.1606E-04  0  0.8066E-05
   (  2, 33, 30)  (  2, 32, 15)  (  2, 25, 14)  (  2, 30, 23)  (  2, 32, 24)
  0 -0.4210E-05  0  0.4178E-05  0 -0.1796E-05  0 -0.1383E-05  0  0.1373E-05
   (  3, 26, 24)  (  3, 18, 19)  (  3,  2, 20)  (  3, 32, 19)  (  2, 16, 19)
  0 -0.1014E-05  0 -0.3520E-06  1  0.2258E-06
   (  2, 26, 24)  (  2,  3, 18)  (  3, 15, 21)

 MAXIMUM RESIDUAL FOR EACH ITERATION (1 INDICATES THE FIRST INNER ITERATION):

    RESIDUAL       RESIDUAL       RESIDUAL       RESIDUAL       RESIDUAL    
   LAYER,ROW,COL  LAYER,ROW,COL  LAYER,ROW,COL  LAYER,ROW,COL  LAYER,ROW,COL
 ---------------------------------------------------------------------------
  1  0.1062E-01  0  0.8799E-02  0  0.7890E-02  0  0.6695E-02  0  0.4784E-02
   (  1, 18, 17)  (  1,  1, 34)  (  1,  1, 34)  (  1,  1, 34)  (  1,  1, 34)
  0  0.2647E-02  0 -0.1521E-02  0 -0.1286E-02  0 -0.9706E-03  0  0.5611E-03
   (  1,  1, 34)  (  1,  2, 34)  (  1,  2, 34)  (  1,  2, 34)  (  1,  2, 33)
  0  0.4286E-03  0  0.2618E-03  0 -0.1233E-03  0 -0.9333E-04  0 -0.5608E-04
   (  1,  2, 33)  (  1,  2, 33)  (  1,  4, 33)  (  1,  3, 33)  (  1,  3, 33)
  0 -0.2786E-04  0  0.1750E-04  0  0.1104E-04  0 -0.7308E-05  0 -0.4685E-05
   (  1,  3, 33)  (  1,  3, 32)  (  1,  3, 32)  (  1,  5, 32)  (  1,  5, 32)
  0 -0.3362E-05  0 -0.1896E-05  0 -0.1108E-05  0  0.7600E-06  0 -0.5445E-06
   (  1,  4, 32)  (  1,  4, 32)  (  1,  4, 32)  (  1,  3, 32)  (  1,  6, 31)
  0 -0.2899E-06  0 -0.1466E-06  0  0.9209E-07  0  0.6273E-07  0  0.3835E-07
   (  1,  6, 31)  (  1,  4, 32)  (  1,  4, 31)  (  1,  4, 31)  (  1,  4, 31)
  0  0.2759E-07  0  0.1581E-07  0 -0.9274E-08  0 -0.6088E-08  0 -0.4323E-08
   (  1,  4, 31)  (  1,  4, 31)  (  1,  5, 31)  (  1,  5, 31)  (  1,  5, 31)
  0  0.2927E-08  0  0.1828E-08  1  0.1568E-08
   (  1,  5, 30)  (  1,  5, 30)  (  1,  5, 30)



 OUTPUT CONTROL FOR STRESS PERIOD    1   TIME STEP   1
    SAVE HEAD FOR ALL LAYERS

 HEAD WILL BE SAVED ON UNIT   30 AT END OF TIME STEP   1, STRESS PERIOD    1
1
  VOLUMETRIC BUDGET FOR ENTIRE MODEL AT END OF TIME STEP  1 IN STRESS PERIOD   1
  ------------------------------------------------------------------------------

     CUMULATIVE VOLUMES      L**3       RATES FOR THIS TIME STEP      L**3/T
     ------------------                 ------------------------

           IN:                                      IN:
           ---                                      ---
             STORAGE =           0.0000               STORAGE =           0.0000
       CONSTANT HEAD =       4.6208E-02         CONSTANT HEAD =       4.6208E-02
               WELLS =           0.0000                 WELLS =           0.0000

            TOTAL IN =       4.6208E-02              TOTAL IN =       4.6208E-02

          OUT:                                     OUT:
          ----                                     ----
             STORAGE =           0.0000               STORAGE =           0.0000
       CONSTANT HEAD =       1.2075E-03         CONSTANT HEAD =       1.2075E-03
               WELLS =       4.5000E-02                 WELLS =       4.5000E-02

           TOTAL OUT =       4.6208E-02             TOTAL OUT =       4.6208E-02

            IN - OUT =           0.0000              IN - OUT =           0.0000

 PERCENT DISCREPANCY =           0.00     PERCENT DISCREPANCY =           0.00






          TIME SUMMARY AT END OF TIME STEP   1 IN STRESS PERIOD    1
                    SECONDS     MINUTES      HOURS       DAYS        YEARS
                    -----------------------------------------------------------
   TIME STEP LENGTH  1.0000     1.66667E-02 2.77778E-04 1.15741E-05 3.16881E-08
 STRESS PERIOD TIME  1.0000     1.66667E-02 2.77778E-04 1.15741E-05 3.16881E-08
         TOTAL TIME  1.0000     1.66667E-02 2.77778E-04 1.15741E-05 3.16881E-08
1

 HEAD AND DRAWDOWN OBSERVATIONS
 OBSERVATION      OBSERVED      SIMULATED
   NAME             VALUE         VALUE      DIFFERENCE
 -------------------------------------------------------
 obs1_01         0.00000       59.4737      -59.4737    
 obs1_02         0.00000       58.0233      -58.0233    
 obs1_03         0.00000       59.0138      -59.0138    
 obs1_04         0.00000       57.9663      -57.9663    
 obs1_05         0.00000       59.5725      -59.5725    
 obs1_06         0.00000       58.0771      -58.0771    
 obs1_07         0.00000       58.0672      -58.0672    
 obs1_08         0.00000       58.2531      -58.2531    
 obs1_09         0.00000       59.4480      -59.4480    
 obs1_10         0.00000       58.0635      -58.0635    
 obs1_11         0.00000       58.6485      -58.6485    
 obs1_12         0.00000       58.0415      -58.0415    
 obs2_01         0.00000       59.3790      -59.3790    
 obs2_02         0.00000       57.8974      -57.8974    
 obs2_03         0.00000       58.6804      -58.6804    
 obs2_04         0.00000       57.5506      -57.5506    
 obs2_05         0.00000       59.4874      -59.4874    
 obs2_06         0.00000       57.9825      -57.9825    
 obs2_07         0.00000       56.6454      -56.6454    
 obs2_08         0.00000       57.6636      -57.6636    
 obs2_09         0.00000       59.3477      -59.3477    
 obs2_10         0.00000       57.7374      -57.7374    
 obs2_11         0.00000       58.2698      -58.2698    
 obs2_12         0.00000       56.6876      -56.6876    
 obs3_01         0.00000       59.2647      -59.2647    
 obs3_02         0.00000       57.7859      -57.7859    
 obs3_03         0.00000       58.4832      -58.4832    
 obs3_04         0.00000       57.3219      -57.3219    
 obs3_05         0.00000       59.3501      -59.3501    
 obs3_06         0.00000       57.8787      -57.8787    
 obs3_07         0.00000       56.6327      -56.6327    
 obs3_08         0.00000       57.3316      -57.3316    
 obs3_09         0.00000       59.2493      -59.2493    
 obs3_10         0.00000       57.5212      -57.5212    
 obs3_11         0.00000       57.9049      -57.9049    
 obs3_12         0.00000       56.5631      -56.5631    

 SUM OF SQUARED DIFFERENCE:    1.21976E+05

 Run end date and time (yyyy/mm/dd hh:mm:ss): 2011/10/12 21:26:00
 Elapsed run time:  0.032 Seconds

