                        MODFLOW-ADJOINT Version 0.96 07/14/2007
            SENSITIVITY CALCULATIONS USING THE ADJOINT STATE METHOD FOR
      U.S. GEOLOGICAL SURVEY MODULAR FINITE-DIFFERENCE GROUND-WATER FLOW MODEL
                             VERSION 1.1 05/18/2006

 LIST FILE: S1_1_adj.lst
                         UNIT    7

 OPENING S1.bas
 FILE TYPE:BAS6   UNIT    1   STATUS:OLD    
 FORMAT:FORMATTED              ACCESS:SEQUENTIAL          

 OPENING S1_.dis
 FILE TYPE:DIS   UNIT   29   STATUS:OLD    
 FORMAT:FORMATTED              ACCESS:SEQUENTIAL          

 OPENING S1_.lpf
 FILE TYPE:LPF   UNIT   11   STATUS:OLD    
 FORMAT:FORMATTED              ACCESS:SEQUENTIAL          

 OPENING S1.zone
 FILE TYPE:ZONE   UNIT   13   STATUS:OLD    
 FORMAT:FORMATTED              ACCESS:SEQUENTIAL          

 OPENING S1_1.wel
 FILE TYPE:WEL   UNIT   12   STATUS:OLD    
 FORMAT:FORMATTED              ACCESS:SEQUENTIAL          

 OPENING S1.oc
 FILE TYPE:OC   UNIT   22   STATUS:OLD    
 FORMAT:FORMATTED              ACCESS:SEQUENTIAL          

 OPENING S1_.mul
 FILE TYPE:MULT   UNIT    8   STATUS:OLD    
 FORMAT:FORMATTED              ACCESS:SEQUENTIAL          

 OPENING S1.pcg
 FILE TYPE:PCG   UNIT   19   STATUS:OLD    
 FORMAT:FORMATTED              ACCESS:SEQUENTIAL          

 OPENING S1.chd
 FILE TYPE:CHD   UNIT   40   STATUS:OLD    
 FORMAT:FORMATTED              ACCESS:SEQUENTIAL          

 OPENING S1_1.hob
 FILE TYPE:HOB   UNIT   18   STATUS:OLD    
 FORMAT:FORMATTED              ACCESS:SEQUENTIAL          

 OPENING S1_.adj
 FILE TYPE:ADJ   UNIT   35   STATUS:OLD    
 FORMAT:FORMATTED              ACCESS:SEQUENTIAL          

 OPENING S1_1_adj.out
 FILE TYPE:DATA   UNIT   44   STATUS:UNKNOWN
 FORMAT:FORMATTED              ACCESS:SEQUENTIAL          

 OPENING S1_adj.pcg
 FILE TYPE:DATA   UNIT   75   STATUS:UNKNOWN
 FORMAT:FORMATTED              ACCESS:SEQUENTIAL          

 OPENING S1_1.hbs
 FILE TYPE:DATA   UNIT   14   STATUS:UNKNOWN
 FORMAT:FORMATTED              ACCESS:SEQUENTIAL          

 OPENING S1_1.sen
 FILE TYPE:DATA   UNIT   48   STATUS:UNKNOWN
 FORMAT:FORMATTED              ACCESS:SEQUENTIAL          

 OPENING S1.cbb
 FILE TYPE:DATA(BINARY)   UNIT   50   STATUS:UNKNOWN
 FORMAT:UNFORMATTED            ACCESS:SEQUENTIAL          

 OPENING S1.cbw
 FILE TYPE:DATA(BINARY)   UNIT   54   STATUS:UNKNOWN
 FORMAT:UNFORMATTED            ACCESS:SEQUENTIAL          

 OPENING S1.hds
 FILE TYPE:DATA(BINARY)   UNIT   30   STATUS:UNKNOWN
 FORMAT:UNFORMATTED            ACCESS:SEQUENTIAL          

 OPENING S1.ddn
 FILE TYPE:DATA(BINARY)   UNIT   31   STATUS:UNKNOWN
 FORMAT:UNFORMATTED            ACCESS:SEQUENTIAL          

 BAS -- BASIC PACKAGE, VERSION 7, 5/2/2005 INPUT READ FROM UNIT    1

 DISCRETIZATION INPUT DATA READ FROM UNIT   29
 # MODFLOW2000 Discretization File
    1 LAYERS        21 ROWS        21 COLUMNS
    1 STRESS PERIOD(S) IN SIMULATION
 MODEL TIME UNIT IS SECONDS
 MODEL LENGTH UNIT IS METERS
  Confining bed flag for each layer:
   0



                               DELR
 READING ON UNIT   29 WITH FORMAT: (10E12.4)           
   1.0000       1.0000       1.0000       1.0000       1.0000       1.0000       1.0000       1.0000       1.0000       1.0000    
   1.0000       1.0000       1.0000       1.0000       1.0000       1.0000       1.0000       1.0000       1.0000       1.0000    
   1.0000    



                               DELC
 READING ON UNIT   29 WITH FORMAT: (10E12.4)           
   1.0000       1.0000       1.0000       1.0000       1.0000       1.0000       1.0000       1.0000       1.0000       1.0000    
   1.0000       1.0000       1.0000       1.0000       1.0000       1.0000       1.0000       1.0000       1.0000       1.0000    
   1.0000    

 TOP ELEVATION OF LAYER 1 =   20.0000    

   MODEL LAYER BOTTOM EL. =   0.00000     FOR LAYER   1


 STRESS PERIOD     LENGTH       TIME STEPS     MULTIPLIER FOR DELT    SS FLAG
 ----------------------------------------------------------------------------
        1         1.000000          1                    1.000         SS

 STEADY-STATE SIMULATION



 
 # MODFLOW2005 Basic Package                                                     



                     BOUNDARY ARRAY FOR LAYER   1
 READING ON UNIT    1 WITH FORMAT: (FREE)              

 AQUIFER HEAD WILL BE SET TO  999.00     AT ALL NO-FLOW NODES (IBOUND=0).



                       INITIAL HEAD FOR LAYER   1
 READING ON UNIT    1 WITH FORMAT: (FREE)              

 OUTPUT CONTROL IS SPECIFIED ONLY AT TIME STEPS FOR WHICH OUTPUT IS DESIRED
 HEAD PRINT FORMAT CODE IS   0    DRAWDOWN PRINT FORMAT CODE IS   0
 HEADS WILL BE SAVED ON UNIT   30    DRAWDOWNS WILL BE SAVED ON UNIT   31

 ZONE OPTION, INPUT READ FROM UNIT   13
 # MODFLOW2000 Zone File
     1 ZONE ARRAYS

 MULTIPLIER OPTION, INPUT READ FROM UNIT    8
 # MODFLOW2005 multiplier Package Parent MD
   1 MULTIPLIER ARRAYS



            MULT. ARRAY: M1        
 READING ON UNIT    8 WITH FORMAT: (FREE)              

            1           2           3           4           5           6           7           8           9          10
           11          12          13          14          15          16          17          18          19          20
           21
 ........................................................................................................................
   1   2.0000E-04  2.0000E-04  2.0000E-04  2.0000E-04  2.0000E-04  2.0000E-04  2.0000E-04  2.0000E-04  2.0000E-04  2.0000E-04
       2.0000E-04  2.0000E-04  2.0000E-04  2.0000E-04  2.0000E-04  2.0000E-04  2.0000E-04  2.0000E-04  2.0000E-04  2.0000E-04
       2.0000E-04
   2   2.0000E-04  2.0000E-04  2.0000E-04  2.0000E-04  2.0000E-04  2.0000E-04  2.0000E-04  2.0000E-04  2.0000E-04  2.0000E-04
       2.0000E-04  2.0000E-04  2.0000E-04  2.0000E-04  2.0000E-04  2.0000E-04  2.0000E-04  2.0000E-04  2.0000E-04  2.0000E-04
       2.0000E-04
   3   2.0000E-04  2.0000E-04  2.0000E-04  2.0000E-04  2.0000E-04  2.0000E-04  2.0000E-04  2.0000E-04  2.0000E-04  2.0000E-04
       2.0000E-04  2.0000E-04  2.0000E-04  2.0000E-04  2.0000E-04  2.0000E-04  2.0000E-04  2.0000E-04  2.0000E-04  2.0000E-04
       2.0000E-04
   4   2.0000E-04  2.0000E-04  2.0000E-04  2.0000E-04  2.0000E-04  2.0000E-04  2.0000E-04  2.0000E-04  2.0000E-04  2.0000E-04
       2.0000E-04  2.0000E-04  2.0000E-04  2.0000E-04  2.0000E-04  2.0000E-04  2.0000E-04  2.0000E-04  2.0000E-04  2.0000E-04
       2.0000E-04
   5   2.0000E-04  2.0000E-04  2.0000E-04  2.0000E-04  2.0000E-04  2.0000E-04  2.0000E-04  2.0000E-04  2.0000E-04  2.0000E-04
       2.0000E-04  2.0000E-04  2.0000E-04  2.0000E-04  2.0000E-04  2.0000E-04  2.0000E-04  2.0000E-04  2.0000E-04  2.0000E-04
       2.0000E-04
   6   2.0000E-04  2.0000E-04  2.0000E-04  2.0000E-04  2.0000E-04  2.0000E-04  2.0000E-04  2.0000E-04  2.0000E-04  2.0000E-04
       2.0000E-04  2.0000E-04  2.0000E-04  2.0000E-04  2.0000E-04  2.0000E-04  2.0000E-04  2.0000E-04  2.0000E-04  2.0000E-04
       2.0000E-04
   7   2.0000E-04  2.0000E-04  2.0000E-04  2.0000E-04  2.0000E-04  2.0000E-04  2.0000E-04  2.0000E-04  2.0000E-04  2.0000E-04
       2.0000E-04  2.0000E-04  2.0000E-04  2.0000E-04  2.0000E-04  2.0000E-04  2.0000E-04  2.0000E-04  2.0000E-04  2.0000E-04
       2.0000E-04
   8   2.0000E-04  2.0000E-04  2.0000E-04  2.0000E-04  2.0000E-04  2.0000E-04  2.0000E-04  2.0000E-04  2.0000E-04  2.0000E-04
       2.0000E-04  2.0000E-04  2.0000E-04  2.0000E-04  2.0000E-04  2.0000E-04  2.0000E-04  2.0000E-04  2.0000E-04  2.0000E-04
       2.0000E-04
   9   2.0000E-04  2.0000E-04  2.0000E-04  2.0000E-04  2.0000E-04  2.0000E-04  2.0000E-04  2.0000E-04  2.0000E-04  2.0000E-04
       2.0000E-04  2.0000E-04  2.0000E-04  2.0000E-04  2.0000E-04  2.0000E-04  2.0000E-04  2.0000E-04  2.0000E-04  2.0000E-04
       2.0000E-04
  10   2.0000E-04  2.0000E-04  2.0000E-04  2.0000E-04  2.0000E-04  2.0000E-04  2.0000E-04  2.0000E-04  2.0000E-04  2.0000E-04
       2.0000E-04  2.0000E-04  2.0000E-04  2.0000E-04  2.0000E-04  2.0000E-04  2.0000E-04  2.0000E-04  2.0000E-04  2.0000E-04
       2.0000E-04
  11   2.0000E-04  2.0000E-04  2.0000E-04  2.0000E-04  2.0000E-04  2.0000E-04  2.0000E-04  2.0000E-04  2.0000E-04  2.0000E-04
       2.0000E-04  2.0000E-04  2.0000E-04  2.0000E-04  2.0000E-04  2.0000E-04  2.0000E-04  2.0000E-04  2.0000E-04  2.0000E-04
       2.0000E-04
  12   2.0000E-04  2.0000E-04  2.0000E-04  2.0000E-04  2.0000E-04  2.0000E-04  2.0000E-04  2.0000E-04  2.0000E-04  2.0000E-04
       2.0000E-04  2.0000E-04  2.0000E-04  2.0000E-04  2.0000E-04  2.0000E-04  2.0000E-04  2.0000E-04  2.0000E-04  2.0000E-04
       2.0000E-04
  13   2.0000E-04  2.0000E-04  2.0000E-04  2.0000E-04  2.0000E-04  2.0000E-04  2.0000E-04  2.0000E-04  2.0000E-04  2.0000E-04
       2.0000E-04  2.0000E-04  2.0000E-04  2.0000E-04  2.0000E-04  2.0000E-04  2.0000E-04  2.0000E-04  2.0000E-04  2.0000E-04
       2.0000E-04
  14   2.0000E-04  2.0000E-04  2.0000E-04  2.0000E-04  2.0000E-04  2.0000E-04  2.0000E-04  2.0000E-04  2.0000E-04  2.0000E-04
       2.0000E-04  2.0000E-04  2.0000E-04  2.0000E-04  2.0000E-04  2.0000E-04  2.0000E-04  2.0000E-04  2.0000E-04  2.0000E-04
       2.0000E-04
  15   2.0000E-04  2.0000E-04  2.0000E-04  2.0000E-04  2.0000E-04  2.0000E-04  2.0000E-04  2.0000E-04  2.0000E-04  2.0000E-04
       2.0000E-04  2.0000E-04  2.0000E-04  2.0000E-04  2.0000E-04  2.0000E-04  2.0000E-04  2.0000E-04  2.0000E-04  2.0000E-04
       2.0000E-04
  16   2.0000E-04  2.0000E-04  2.0000E-04  2.0000E-04  2.0000E-04  2.0000E-04  2.0000E-04  2.0000E-04  2.0000E-04  2.0000E-04
       2.0000E-04  2.0000E-04  2.0000E-04  2.0000E-04  2.0000E-04  2.0000E-04  2.0000E-04  2.0000E-04  2.0000E-04  2.0000E-04
       2.0000E-04
  17   2.0000E-04  2.0000E-04  2.0000E-04  2.0000E-04  2.0000E-04  2.0000E-04  2.0000E-04  2.0000E-04  2.0000E-04  2.0000E-04
       2.0000E-04  2.0000E-04  2.0000E-04  2.0000E-04  2.0000E-04  2.0000E-04  2.0000E-04  2.0000E-04  2.0000E-04  2.0000E-04
       2.0000E-04
  18   2.0000E-04  2.0000E-04  2.0000E-04  2.0000E-04  2.0000E-04  2.0000E-04  2.0000E-04  2.0000E-04  2.0000E-04  2.0000E-04
       2.0000E-04  2.0000E-04  2.0000E-04  2.0000E-04  2.0000E-04  2.0000E-04  2.0000E-04  2.0000E-04  2.0000E-04  2.0000E-04
       2.0000E-04
  19   2.0000E-04  2.0000E-04  2.0000E-04  2.0000E-04  2.0000E-04  2.0000E-04  2.0000E-04  2.0000E-04  2.0000E-04  2.0000E-04
       2.0000E-04  2.0000E-04  2.0000E-04  2.0000E-04  2.0000E-04  2.0000E-04  2.0000E-04  2.0000E-04  2.0000E-04  2.0000E-04
       2.0000E-04
  20   2.0000E-04  2.0000E-04  2.0000E-04  2.0000E-04  2.0000E-04  2.0000E-04  2.0000E-04  2.0000E-04  2.0000E-04  2.0000E-04
       2.0000E-04  2.0000E-04  2.0000E-04  2.0000E-04  2.0000E-04  2.0000E-04  2.0000E-04  2.0000E-04  2.0000E-04  2.0000E-04
       2.0000E-04
  21   2.0000E-04  2.0000E-04  2.0000E-04  2.0000E-04  2.0000E-04  2.0000E-04  2.0000E-04  2.0000E-04  2.0000E-04  2.0000E-04
       2.0000E-04  2.0000E-04  2.0000E-04  2.0000E-04  2.0000E-04  2.0000E-04  2.0000E-04  2.0000E-04  2.0000E-04  2.0000E-04
       2.0000E-04



             ZONE ARRAY: khz1      
 READING ON UNIT   13 WITH FORMAT: (FREE)              

 LPF -- LAYER-PROPERTY FLOW PACKAGE, VERSION 7, 5/2/2005
         INPUT READ FROM UNIT   11
 # MODFLOW2005 Layer Property Flow (LPF) Package Parent MD
 CELL-BY-CELL FLOWS WILL BE SAVED ON UNIT   50
 HEAD AT CELLS THAT CONVERT TO DRY=   999.00    
     1 Named Parameters     

   LAYER FLAGS:
 LAYER       LAYTYP        LAYAVG         CHANI        LAYVKA        LAYWET
 ---------------------------------------------------------------------------
    1             0             0     1.000E+00             1             0

   INTERPRETATION OF LAYER FLAGS:
                        INTERBLOCK     HORIZONTAL    DATA IN
         LAYER TYPE   TRANSMISSIVITY   ANISOTROPY   ARRAY VKA   WETTABILITY
 LAYER      (LAYTYP)      (LAYAVG)       (CHANI)      (LAYVKA)      (LAYWET)
 ---------------------------------------------------------------------------
    1      CONFINED      HARMONIC     1.000E+00    ANISOTROPY  NON-WETTABLE

 WETTING CAPABILITY IS NOT ACTIVE IN ANY LAYER

 PARAMETERS DEFINED IN THE LPF PACKAGE

 PARAMETER NAME:kh000001     TYPE:HK     CLUSTERS:   1
 Parameter value from package file is:    1.0000    
                LAYER:   1    MULTIPLIER ARRAY: M1    ZONE ARRAY: khz1
                ZONE VALUES:    1

    HYD. COND. ALONG ROWS FOR LAYER   1 WILL BE DEFINED BY PARAMETERS
 (PRINT FLAG=  -1)

    HYD. COND. ALONG ROWS is defined by the following parameters:
 kh000001  

    HYD. COND. ALONG ROWS =  2.000000E-04 FOR LAYER   1

  HORIZ. TO VERTICAL ANI. =   1.00000     FOR LAYER   1

 WEL -- WELL PACKAGE, VERSION 7, 5/2/2005 INPUT READ FROM UNIT   12
 # MODFLOW2000 Well Package
     0 Named Parameters         0 List entries
 MAXIMUM OF      1 ACTIVE WELLS AT ONE TIME
 CELL-BY-CELL FLOWS WILL BE SAVED ON UNIT   54


     0 Well parameters

 CHD -- TIME-VARIANT SPECIFIED-HEAD OPTION, VERSION 7, 5/2/2005
 INPUT READ FROM UNIT   40
 # MODFLOW2000 Constant-Head Boundary Package (CHD)
 No named parameters
 MAXIMUM OF     80 TIME-VARIANT SPECIFIED-HEAD CELLS AT ONE TIME


     0 TIME-VARIANT SPECIFIED-HEAD PARAMETERS

 PCG -- CONJUGATE-GRADIENT SOLUTION PACKAGE, VERSION 7, 5/2/2005
 MAXIMUM OF   1000 CALLS OF SOLUTION ROUTINE
 MAXIMUM OF     40 INTERNAL ITERATIONS PER CALL TO SOLUTION ROUTINE
 MATRIX PRECONDITIONING TYPE :    1



                                    SOLUTION BY THE CONJUGATE-GRADIENT METHOD
                                   -------------------------------------------
                    MAXIMUM NUMBER OF CALLS TO PCG ROUTINE =     1000
                        MAXIMUM ITERATIONS PER CALL TO PCG =       40
                               MATRIX PRECONDITIONING TYPE =        1
        RELAXATION FACTOR (ONLY USED WITH PRECOND. TYPE 1) =    0.10000E+01
 PARAMETER OF POLYNOMIAL PRECOND. = 2 (2) OR IS CALCULATED :        2
                         HEAD CHANGE CRITERION FOR CLOSURE =    0.10000E-05
                     RESIDUAL CHANGE CRITERION FOR CLOSURE =    0.10000E-05
            PCG HEAD AND RESIDUAL CHANGE PRINTOUT INTERVAL =        5
     PRINTING FROM SOLVER IS LIMITED(1) OR SUPPRESSED (>1) =        0
                                         DAMPING PARAMETER =    0.10000E+01

 OBS2BAS7 -- HEAD OBSERVATIONS, VERSION 2.0, 2/28/2006
 INPUT READ FROM UNIT  18
 # MODFLOW2005 Observation file (HOB) Marco

 NUMBER OF HEADS....................................:   12
   NUMBER OF MULTILAYER HEADS.......................:    0
   MAXIMUM NUMBER OF LAYERS FOR MULTILAYER HEADS....:    2
 HEAD OBSERVATIONS WILL BE SAVED ON UNIT............:   14
 SIMULATED EQUIVALENT HEAD AT DRY CELLS WILL BE:    999.000    

 OBSERVED HEAD DATA -- TIME OFFSETS ARE MULTIPLIED BY:   1.0000    

                    REFER.
       OBSERVATION  STRESS    TIME
  OBS#    NAME      PERIOD   OFFSET    OBSERVATION
     1 P001T0000        1    1.000       999.0    
     2 P002T0000        1    1.000       999.0    
     3 P003T0000        1    1.000       999.0    
     4 P004T0000        1    1.000       999.0    
     5 P005T0000        1    1.000       999.0    
     6 P006T0000        1    1.000       999.0    
     7 P007T0000        1    1.000       999.0    
     8 P008T0000        1    1.000       999.0    
     9 P009T0000        1    1.000       999.0    
    10 P010T0000        1    1.000       999.0    
    11 P011T0000        1    1.000       999.0    
    12 P012T0000        1    1.000       999.0    

                                                     HEAD CHANGE
                                                      REFERENCE
        OBSERVATION                   ROW     COL    OBSERVATION
  OBS#     NAME       LAY  ROW  COL  OFFSET  OFFSET   (IF > 0)
     1  P001T0000       1    5    5   0.000   0.000        0
     2  P002T0000       1   10    5   0.000   0.000        0
     3  P003T0000       1   16    5   0.000   0.000        0
     4  P004T0000       1    7    7   0.000   0.000        0
     5  P005T0000       1   14    7   0.000   0.000        0
     6  P006T0000       1    5   10   0.000   0.000        0
     7  P007T0000       1   16   10   0.000   0.000        0
     8  P008T0000       1    7   14   0.000   0.000        0
     9  P009T0000       1   14   14   0.000   0.000        0
    10  P010T0000       1    5   16   0.000   0.000        0
    11  P011T0000       1   10   16   0.000   0.000        0
    12  P012T0000       1   16   16   0.000   0.000        0

 ADJ -- ADJOINT STATE SENSITIVITY PACKAGE, VERSION -- PRE-RELEASE
        INPUT READ FROM UNIT   35
 # Modflow 2005 ADJ File Input Adjoint MD
 USING OBSERVATION BASED ADJOINT STATE MODE
SENSITIVITY OUTPUT FILE CONTROL INFORMATION -   44  12   0   0
 Adjoint state solver information  read from unit 75
 PCG -- CONJUGATE-GRADIENT SOLUTION PACKAGE, VERSION 7, 5/2/2005
 MAXIMUM OF   1000 CALLS OF SOLUTION ROUTINE
 MAXIMUM OF     40 INTERNAL ITERATIONS PER CALL TO SOLUTION ROUTINE
 MATRIX PRECONDITIONING TYPE :    1



                                    SOLUTION BY THE CONJUGATE-GRADIENT METHOD
                                   -------------------------------------------
                    MAXIMUM NUMBER OF CALLS TO PCG ROUTINE =     1000
                        MAXIMUM ITERATIONS PER CALL TO PCG =       40
                               MATRIX PRECONDITIONING TYPE =        1
        RELAXATION FACTOR (ONLY USED WITH PRECOND. TYPE 1) =    0.10000E+01
 PARAMETER OF POLYNOMIAL PRECOND. = 2 (2) OR IS CALCULATED :        2
                         HEAD CHANGE CRITERION FOR CLOSURE =    0.10000E-07
                     RESIDUAL CHANGE CRITERION FOR CLOSURE =    0.10000E-07
            PCG HEAD AND RESIDUAL CHANGE PRINTOUT INTERVAL =        5
     PRINTING FROM SOLVER IS LIMITED(1) OR SUPPRESSED (>1) =        0
                                         DAMPING PARAMETER =    0.10000E+01

 NUMBER OF PARAMETERS READ FROM ADJ FILE:    1
 NUMBER OF DISTRIBUTED PARAMETERS  441
DISTRIBUTED PARAMETER SENSITIVITIES WRITTEN TO UNIT  48 USING OUTPUT FORMAT   1
RELATIVE SENSITIVITY CUTOFF =   0.000    
DISTRIBUTED PARAMETERS ARE PARAMETERS:
   1   1   1   1   1   1   1   1   1   1
DISTRIBUTED PARAMETERS ARE PARAMETERS:
   1   1   1   1   1   1   1   1   1   1
DISTRIBUTED PARAMETERS ARE PARAMETERS:
   1   1   1   1   1   1   1   1   1   1
DISTRIBUTED PARAMETERS ARE PARAMETERS:
   1   1   1   1   1   1   1   1   1   1
DISTRIBUTED PARAMETERS ARE PARAMETERS:
   1   1   1   1   1   1   1   1   1   1
DISTRIBUTED PARAMETERS ARE PARAMETERS:
   1   1   1   1   1   1   1   1   1   1
DISTRIBUTED PARAMETERS ARE PARAMETERS:
   1   1   1   1   1   1   1   1   1   1
DISTRIBUTED PARAMETERS ARE PARAMETERS:
   1   1   1   1   1   1   1   1   1   1
DISTRIBUTED PARAMETERS ARE PARAMETERS:
   1   1   1   1   1   1   1   1   1   1
DISTRIBUTED PARAMETERS ARE PARAMETERS:
   1   1   1   1   1   1   1   1   1   1
DISTRIBUTED PARAMETERS ARE PARAMETERS:
   1   1   1   1   1   1   1   1   1   1
DISTRIBUTED PARAMETERS ARE PARAMETERS:
   1   1   1   1   1   1   1   1   1   1
DISTRIBUTED PARAMETERS ARE PARAMETERS:
   1   1   1   1   1   1   1   1   1   1
DISTRIBUTED PARAMETERS ARE PARAMETERS:
   1   1   1   1   1   1   1   1   1   1
DISTRIBUTED PARAMETERS ARE PARAMETERS:
   1   1   1   1   1   1   1   1   1   1
DISTRIBUTED PARAMETERS ARE PARAMETERS:
   1   1   1   1   1   1   1   1   1   1
DISTRIBUTED PARAMETERS ARE PARAMETERS:
   1   1   1   1   1   1   1   1   1   1
DISTRIBUTED PARAMETERS ARE PARAMETERS:
   1   1   1   1   1   1   1   1   1   1
DISTRIBUTED PARAMETERS ARE PARAMETERS:
   1   1   1   1   1   1   1   1   1   1
DISTRIBUTED PARAMETERS ARE PARAMETERS:
   1   1   1   1   1   1   1   1   1   1
DISTRIBUTED PARAMETERS ARE PARAMETERS:
   1   1   1   1   1   1   1   1   1   1
DISTRIBUTED PARAMETERS ARE PARAMETERS:
   1   1   1   1   1   1   1   1   1   1
DISTRIBUTED PARAMETERS ARE PARAMETERS:
   1   1   1   1   1   1   1   1   1   1
DISTRIBUTED PARAMETERS ARE PARAMETERS:
   1   1   1   1   1   1   1   1   1   1
DISTRIBUTED PARAMETERS ARE PARAMETERS:
   1   1   1   1   1   1   1   1   1   1
DISTRIBUTED PARAMETERS ARE PARAMETERS:
   1   1   1   1   1   1   1   1   1   1
DISTRIBUTED PARAMETERS ARE PARAMETERS:
   1   1   1   1   1   1   1   1   1   1
DISTRIBUTED PARAMETERS ARE PARAMETERS:
   1   1   1   1   1   1   1   1   1   1
DISTRIBUTED PARAMETERS ARE PARAMETERS:
   1   1   1   1   1   1   1   1   1   1
DISTRIBUTED PARAMETERS ARE PARAMETERS:
   1   1   1   1   1   1   1   1   1   1
DISTRIBUTED PARAMETERS ARE PARAMETERS:
   1   1   1   1   1   1   1   1   1   1
DISTRIBUTED PARAMETERS ARE PARAMETERS:
   1   1   1   1   1   1   1   1   1   1
DISTRIBUTED PARAMETERS ARE PARAMETERS:
   1   1   1   1   1   1   1   1   1   1
DISTRIBUTED PARAMETERS ARE PARAMETERS:
   1   1   1   1   1   1   1   1   1   1
DISTRIBUTED PARAMETERS ARE PARAMETERS:
   1   1   1   1   1   1   1   1   1   1
DISTRIBUTED PARAMETERS ARE PARAMETERS:
   1   1   1   1   1   1   1   1   1   1
DISTRIBUTED PARAMETERS ARE PARAMETERS:
   1   1   1   1   1   1   1   1   1   1
DISTRIBUTED PARAMETERS ARE PARAMETERS:
   1   1   1   1   1   1   1   1   1   1
DISTRIBUTED PARAMETERS ARE PARAMETERS:
   1   1   1   1   1   1   1   1   1   1
DISTRIBUTED PARAMETERS ARE PARAMETERS:
   1   1   1   1   1   1   1   1   1   1
DISTRIBUTED PARAMETERS ARE PARAMETERS:
   1   1   1   1   1   1   1   1   1   1
DISTRIBUTED PARAMETERS ARE PARAMETERS:
   1   1   1   1   1   1   1   1   1   1
DISTRIBUTED PARAMETERS ARE PARAMETERS:
   1   1   1   1   1   1   1   1   1   1
DISTRIBUTED PARAMETERS ARE PARAMETERS:
   1   1   1   1   1   1   1   1   1   1
DISTRIBUTED PARAMETERS ARE PARAMETERS:
   1

 INFORMATION ON PARAMETERS LISTED IN ADJ FILE

    NAME     LN
 ----------  -----  
 kh000001      0
1
                            STRESS PERIOD NO.    1, LENGTH =   1.000000    
                            -----------------------------------------------

                              NUMBER OF TIME STEPS =     1

                               MULTIPLIER FOR DELT =     1.000

                            INITIAL TIME STEP SIZE =   1.000000    

 WELL NO.  LAYER   ROW   COL   STRESS RATE         
 --------------------------------------------------
      1      1     13      6      -3.000    

      1 WELL 

 CHD NO.   LAYER   ROW   COL    START HEAD        END HEAD         
 ------------------------------------------------------------------
      1      1      1      1       35.00           35.00    
      2      1      1      2       35.00           35.00    
      3      1      1      3       35.00           35.00    
      4      1      1      4       35.00           35.00    
      5      1      1      5       35.00           35.00    
      6      1      1      6       35.00           35.00    
      7      1      1      7       35.00           35.00    
      8      1      1      8       35.00           35.00    
      9      1      1      9       35.00           35.00    
     10      1      1     10       35.00           35.00    
     11      1      1     11       35.00           35.00    
     12      1      1     12       35.00           35.00    
     13      1      1     13       35.00           35.00    
     14      1      1     14       35.00           35.00    
     15      1      1     15       35.00           35.00    
     16      1      1     16       35.00           35.00    
     17      1      1     17       35.00           35.00    
     18      1      1     18       35.00           35.00    
     19      1      1     19       35.00           35.00    
     20      1      1     20       35.00           35.00    
     21      1      1     21       35.00           35.00    
     22      1      2      1       35.00           35.00    
     23      1      2     21       35.00           35.00    
     24      1      3      1       35.00           35.00    
     25      1      3     21       35.00           35.00    
     26      1      4      1       35.00           35.00    
     27      1      4     21       35.00           35.00    
     28      1      5      1       35.00           35.00    
     29      1      5     21       35.00           35.00    
     30      1      6      1       35.00           35.00    
     31      1      6     21       35.00           35.00    
     32      1      7      1       35.00           35.00    
     33      1      7     21       35.00           35.00    
     34      1      8      1       35.00           35.00    
     35      1      8     21       35.00           35.00    
     36      1      9      1       35.00           35.00    
     37      1      9     21       35.00           35.00    
     38      1     10      1       35.00           35.00    
     39      1     10     21       35.00           35.00    
     40      1     11      1       35.00           35.00    
     41      1     11     21       35.00           35.00    
     42      1     12      1       35.00           35.00    
     43      1     12     21       35.00           35.00    
     44      1     13      1       35.00           35.00    
     45      1     13     21       35.00           35.00    
     46      1     14      1       35.00           35.00    
     47      1     14     21       35.00           35.00    
     48      1     15      1       35.00           35.00    
     49      1     15     21       35.00           35.00    
     50      1     16      1       35.00           35.00    
     51      1     16     21       35.00           35.00    
     52      1     17      1       35.00           35.00    
     53      1     17     21       35.00           35.00    
     54      1     18      1       35.00           35.00    
     55      1     18     21       35.00           35.00    
     56      1     19      1       35.00           35.00    
     57      1     19     21       35.00           35.00    
     58      1     20      1       35.00           35.00    
     59      1     20     21       35.00           35.00    
     60      1     21      1       35.00           35.00    
     61      1     21      2       35.00           35.00    
     62      1     21      3       35.00           35.00    
     63      1     21      4       35.00           35.00    
     64      1     21      5       35.00           35.00    
     65      1     21      6       35.00           35.00    
     66      1     21      7       35.00           35.00    
     67      1     21      8       35.00           35.00    
     68      1     21      9       35.00           35.00    
     69      1     21     10       35.00           35.00    
     70      1     21     11       35.00           35.00    
     71      1     21     12       35.00           35.00    
     72      1     21     13       35.00           35.00    
     73      1     21     14       35.00           35.00    
     74      1     21     15       35.00           35.00    
     75      1     21     16       35.00           35.00    
     76      1     21     17       35.00           35.00    
     77      1     21     18       35.00           35.00    
     78      1     21     19       35.00           35.00    
     79      1     21     20       35.00           35.00    
     80      1     21     21       35.00           35.00    


     80 TIME-VARIANT SPECIFIED-HEAD CELLS
 
 SOLVING FOR HEAD 


     3 CALLS TO PCG ROUTINE FOR TIME STEP   1 IN STRESS PERIOD    1
    23 TOTAL ITERATIONS

 MAXIMUM HEAD CHANGE FOR EACH ITERATION (1 INDICATES THE FIRST INNER ITERATION):

    HEAD CHANGE    HEAD CHANGE    HEAD CHANGE    HEAD CHANGE    HEAD CHANGE 
   LAYER,ROW,COL  LAYER,ROW,COL  LAYER,ROW,COL  LAYER,ROW,COL  LAYER,ROW,COL
 ---------------------------------------------------------------------------
  1  -355.2      0  -68.18      0   24.68      0  -9.475      0  -3.313    
   (  1, 13,  6)  (  1, 13,  6)  (  1, 15, 15)  (  1, 12,  7)  (  1, 14,  5)
  0   1.142      0 -0.4936      0 -0.2029      0 -0.8050E-01  0  0.2243E-01
   (  1, 10, 15)  (  1,  8, 11)  (  1, 11,  8)  (  1, 14, 17)  (  1, 17,  9)
  0 -0.1163E-01  0 -0.3126E-02  0 -0.1049E-02  0  0.4548E-03  0 -0.1065E-03
   (  1, 10,  9)  (  1, 16,  3)  (  1, 10, 17)  (  1,  8, 15)  (  1,  9, 18)
  0 -0.4284E-04  0 -0.1226E-04  0 -0.4955E-05  0 -0.1153E-05  0  0.3985E-06
   (  1,  9, 10)  (  1,  6, 12)  (  1,  8,  9)  (  1, 17, 17)  (  1,  9, 16)
  1 -0.1310E-05  0  0.3582E-06  1  0.1725E-06
   (  1, 12,  7)  (  1, 16, 12)  (  1, 14, 15)

 MAXIMUM RESIDUAL FOR EACH ITERATION (1 INDICATES THE FIRST INNER ITERATION):

    RESIDUAL       RESIDUAL       RESIDUAL       RESIDUAL       RESIDUAL    
   LAYER,ROW,COL  LAYER,ROW,COL  LAYER,ROW,COL  LAYER,ROW,COL  LAYER,ROW,COL
 ---------------------------------------------------------------------------
  1  0.9612      0  0.2575      0  0.1526      0  0.5550E-01  0  0.1176E-01
   (  1, 13,  6)  (  1, 12,  7)  (  1, 12,  7)  (  1, 14,  5)  (  1, 11,  8)
  0  0.5684E-02  0  0.2468E-02  0  0.9866E-03  0  0.2736E-03  0  0.1303E-03
   (  1, 11,  8)  (  1, 15,  4)  (  1, 15,  4)  (  1, 10,  9)  (  1, 10,  9)
  0  0.5012E-04  0  0.1196E-04  0  0.3999E-05  0  0.1255E-05  0  0.4403E-06
   (  1, 16,  3)  (  1, 16,  3)  (  1,  9, 10)  (  1, 17,  2)  (  1, 17,  2)
  0  0.1177E-06  0 -0.3580E-07  0 -0.1147E-07  0  0.4025E-08  0  0.1393E-08
   (  1, 17,  2)  (  1, 16,  2)  (  1, 18,  2)  (  1,  7, 12)  (  1,  7, 12)
  1 -0.4151E-08  0 -0.1615E-08  1 -0.1086E-08
   (  1, 14,  6)  (  1, 11,  6)  (  1, 11,  6)



 OUTPUT CONTROL FOR STRESS PERIOD    1   TIME STEP   1
    SAVE HEAD FOR ALL LAYERS

 HEAD WILL BE SAVED ON UNIT   30 AT END OF TIME STEP   1, STRESS PERIOD    1
1
  VOLUMETRIC BUDGET FOR ENTIRE MODEL AT END OF TIME STEP  1 IN STRESS PERIOD   1
  ------------------------------------------------------------------------------

     CUMULATIVE VOLUMES      L**3       RATES FOR THIS TIME STEP      L**3/T
     ------------------                 ------------------------

           IN:                                      IN:
           ---                                      ---
             STORAGE =           0.0000               STORAGE =           0.0000
       CONSTANT HEAD =           3.0000         CONSTANT HEAD =           3.0000
               WELLS =           0.0000                 WELLS =           0.0000

            TOTAL IN =           3.0000              TOTAL IN =           3.0000

          OUT:                                     OUT:
          ----                                     ----
             STORAGE =           0.0000               STORAGE =           0.0000
       CONSTANT HEAD =           0.0000         CONSTANT HEAD =           0.0000
               WELLS =           3.0000                 WELLS =           3.0000

           TOTAL OUT =           3.0000             TOTAL OUT =           3.0000

            IN - OUT =           0.0000              IN - OUT =           0.0000

 PERCENT DISCREPANCY =           0.00     PERCENT DISCREPANCY =           0.00






          TIME SUMMARY AT END OF TIME STEP   1 IN STRESS PERIOD    1
                    SECONDS     MINUTES      HOURS       DAYS        YEARS
                    -----------------------------------------------------------
   TIME STEP LENGTH  1.0000     1.66667E-02 2.77778E-04 1.15741E-05 3.16881E-08
 STRESS PERIOD TIME  1.0000     1.66667E-02 2.77778E-04 1.15741E-05 3.16881E-08
         TOTAL TIME  1.0000     1.66667E-02 2.77778E-04 1.15741E-05 3.16881E-08
1
  START OF ADJOINT STATE CALCULATIONS


     3 CALLS TO PCG ROUTINE FOR TIME STEP   1 IN STRESS PERIOD    1
    27 TOTAL ITERATIONS

 MAXIMUM HEAD CHANGE FOR EACH ITERATION (1 INDICATES THE FIRST INNER ITERATION):

    HEAD CHANGE    HEAD CHANGE    HEAD CHANGE    HEAD CHANGE    HEAD CHANGE 
   LAYER,ROW,COL  LAYER,ROW,COL  LAYER,ROW,COL  LAYER,ROW,COL  LAYER,ROW,COL
 ---------------------------------------------------------------------------
  1   112.6      0  -15.14      0   5.372      0   2.687      0  0.8751    
   (  1,  5,  5)  (  1, 10, 10)  (  1,  7,  4)  (  1,  6,  4)  (  1,  4,  6)
  0  0.2414      0 -0.9453E-01  0  0.3872E-01  0 -0.1418E-01  0  0.3961E-02
   (  1,  8,  2)  (  1,  8, 12)  (  1, 16, 16)  (  1, 17, 17)  (  1, 13, 13)
  0 -0.1305E-02  0  0.3968E-03  0  0.1121E-03  0  0.2217E-04  0 -0.5622E-05
   (  1, 13, 13)  (  1,  4,  4)  (  1,  4,  4)  (  1,  8,  2)  (  1,  4,  4)
  0 -0.2056E-05  0  0.8604E-06  0 -0.4436E-06  0 -0.7728E-07  0  0.3646E-07
   (  1,  4,  4)  (  1, 13, 13)  (  1, 18, 18)  (  1,  6,  9)  (  1, 10,  7)
  0 -0.7602E-08  1  0.3913E-06  0 -0.1776E-06  0 -0.5398E-07  0  0.1662E-07
   (  1,  3,  3)  (  1, 14, 14)  (  1,  4,  5)  (  1,  6,  3)  (  1, 10,  6)
  0 -0.4916E-08  1 -0.2131E-08
   (  1, 13,  9)  (  1,  7, 15)

 MAXIMUM RESIDUAL FOR EACH ITERATION (1 INDICATES THE FIRST INNER ITERATION):

    RESIDUAL       RESIDUAL       RESIDUAL       RESIDUAL       RESIDUAL    
   LAYER,ROW,COL  LAYER,ROW,COL  LAYER,ROW,COL  LAYER,ROW,COL  LAYER,ROW,COL
 ---------------------------------------------------------------------------
  1 -0.2496      0 -0.7392E-01  0 -0.3937E-01  0 -0.1421E-01  0 -0.3159E-02
   (  1,  5,  5)  (  1,  5,  5)  (  1,  4,  6)  (  1,  4,  6)  (  1,  4,  6)
  0  0.1122E-02  0 -0.5499E-03  0 -0.1884E-03  0 -0.4443E-04  0 -0.1816E-04
   (  1,  3,  6)  (  1,  3,  7)  (  1,  3,  7)  (  1,  3,  7)  (  1,  2,  8)
  0 -0.6672E-05  0 -0.1838E-05  0 -0.4147E-06  0 -0.1019E-06  0  0.3997E-07
   (  1,  2,  8)  (  1,  2,  8)  (  1,  2,  8)  (  1,  2,  8)  (  1,  4,  4)
  0  0.8381E-08  0  0.3619E-08  0  0.9754E-09  0  0.3050E-09  0  0.1364E-09
   (  1,  4,  4)  (  1,  4,  4)  (  1,  2,  9)  (  1,  3,  3)  (  1,  3,  3)
  0  0.2163E-10  1  0.1259E-08  0 -0.4570E-09  0 -0.1583E-09  0 -0.6535E-10
   (  1,  3,  3)  (  1,  4,  5)  (  1,  5,  5)  (  1,  4,  6)  (  1,  4,  6)
  0  0.2267E-10  1  0.1350E-10
   (  1,  2,  7)  (  1,  2,  7)


        SENSITIVITY CALCULATION FOR GLOBAL OBSERVATION  1 P001T0000   


     3 CALLS TO PCG ROUTINE FOR TIME STEP   1 IN STRESS PERIOD    1
    29 TOTAL ITERATIONS

 MAXIMUM HEAD CHANGE FOR EACH ITERATION (1 INDICATES THE FIRST INNER ITERATION):

    HEAD CHANGE    HEAD CHANGE    HEAD CHANGE    HEAD CHANGE    HEAD CHANGE 
   LAYER,ROW,COL  LAYER,ROW,COL  LAYER,ROW,COL  LAYER,ROW,COL  LAYER,ROW,COL
 ---------------------------------------------------------------------------
  1   116.3      0   19.49      0  -7.579      0   3.003      0  0.9736    
   (  1, 10,  5)  (  1, 10,  5)  (  1, 13, 15)  (  1,  9,  6)  (  1, 11,  4)
  0  0.3974      0 -0.1465      0  0.8366E-01  0 -0.2690E-01  0  0.8003E-02
   (  1,  8,  8)  (  1,  9,  9)  (  1, 15, 14)  (  1, 17, 17)  (  1, 12,  3)
  0  0.2771E-02  0  0.1079E-02  0  0.3487E-03  0 -0.1193E-03  0 -0.4985E-04
   (  1,  9,  8)  (  1,  7, 15)  (  1,  6,  9)  (  1, 12, 16)  (  1, 17,  9)
  0 -0.1222E-04  0  0.3308E-05  0  0.9131E-06  0  0.3424E-06  0  0.1337E-06
   (  1,  7, 17)  (  1,  5, 10)  (  1, 16, 18)  (  1, 17, 14)  (  1,  4, 11)
  0  0.3771E-07  0  0.1164E-07  0 -0.6082E-08  1 -0.9422E-06  0 -0.2019E-06
   (  1,  7, 10)  (  1, 16,  6)  (  1, 10, 12)  (  1, 10,  5)  (  1, 10,  5)
  0  0.7867E-07  0 -0.3129E-07  0  0.9217E-08  1 -0.4348E-08
   (  1, 12, 13)  (  1,  9,  6)  (  1, 16, 11)  (  1, 11, 10)

 MAXIMUM RESIDUAL FOR EACH ITERATION (1 INDICATES THE FIRST INNER ITERATION):

    RESIDUAL       RESIDUAL       RESIDUAL       RESIDUAL       RESIDUAL    
   LAYER,ROW,COL  LAYER,ROW,COL  LAYER,ROW,COL  LAYER,ROW,COL  LAYER,ROW,COL
 ---------------------------------------------------------------------------
  1 -0.2910      0 -0.7975E-01  0 -0.4792E-01  0 -0.1651E-01  0 -0.3585E-02
   (  1, 10,  5)  (  1,  9,  6)  (  1,  9,  6)  (  1,  9,  6)  (  1,  8,  7)
  0 -0.1809E-02  0 -0.8002E-03  0 -0.3344E-03  0 -0.1173E-03  0 -0.3709E-04
   (  1,  8,  7)  (  1,  8,  7)  (  1, 12,  3)  (  1, 12,  3)  (  1,  7,  8)
  0 -0.1119E-04  0 -0.3956E-05  0 -0.1415E-05  0 -0.4620E-06  0  0.1142E-06
   (  1, 13,  2)  (  1, 13,  2)  (  1, 13,  2)  (  1, 13,  2)  (  1, 14,  2)
  0 -0.4002E-07  0 -0.8312E-08  0  0.2825E-08  0 -0.1423E-08  0 -0.3778E-09
   (  1,  5, 10)  (  1,  5, 10)  (  1, 14,  2)  (  1,  4, 11)  (  1,  4, 11)
  0 -0.1077E-09  0 -0.4210E-10  0 -0.2385E-10  1  0.2248E-08  0  0.8897E-09
   (  1,  4, 11)  (  1,  3, 12)  (  1,  3, 12)  (  1, 11,  4)  (  1, 11,  4)
  0  0.2795E-09  0  0.9723E-10  0  0.3815E-10  1  0.2368E-10
   (  1, 12,  3)  (  1, 12,  3)  (  1, 13,  2)  (  1, 13,  2)


        SENSITIVITY CALCULATION FOR GLOBAL OBSERVATION  2 P002T0000   


     3 CALLS TO PCG ROUTINE FOR TIME STEP   1 IN STRESS PERIOD    1
    29 TOTAL ITERATIONS

 MAXIMUM HEAD CHANGE FOR EACH ITERATION (1 INDICATES THE FIRST INNER ITERATION):

    HEAD CHANGE    HEAD CHANGE    HEAD CHANGE    HEAD CHANGE    HEAD CHANGE 
   LAYER,ROW,COL  LAYER,ROW,COL  LAYER,ROW,COL  LAYER,ROW,COL  LAYER,ROW,COL
 ---------------------------------------------------------------------------
  1   117.4      0   19.84      0  -5.787      0  -2.595      0 -0.9077    
   (  1, 16,  5)  (  1, 14,  9)  (  1, 17, 13)  (  1, 14, 16)  (  1, 11, 18)
  0  0.2890      0  0.9605E-01  0  0.3703E-01  0 -0.1634E-01  0  0.9563E-02
   (  1,  8, 15)  (  1, 16, 19)  (  1, 16, 16)  (  1, 13, 14)  (  1, 11, 11)
  0 -0.3028E-02  0  0.9662E-03  0 -0.3942E-03  0  0.1280E-03  0  0.3922E-04
   (  1,  9,  9)  (  1, 12, 18)  (  1, 10, 14)  (  1,  8, 13)  (  1,  9,  8)
  0  0.9045E-05  0  0.3415E-05  0 -0.9947E-06  0 -0.3003E-06  0  0.1114E-06
   (  1, 18,  7)  (  1,  9, 11)  (  1,  6,  8)  (  1, 15, 17)  (  1, 12,  9)
  0 -0.3668E-07  0 -0.1397E-07  0 -0.6373E-08  1  0.5048E-06  0  0.1407E-06
   (  1, 13, 11)  (  1, 11, 14)  (  1, 18, 15)  (  1, 15,  5)  (  1, 13, 11)
  0 -0.5249E-07  0 -0.2474E-07  0 -0.6838E-08  1  0.2381E-08
   (  1, 16, 14)  (  1, 13, 17)  (  1,  8, 17)  (  1,  8, 16)

 MAXIMUM RESIDUAL FOR EACH ITERATION (1 INDICATES THE FIRST INNER ITERATION):

    RESIDUAL       RESIDUAL       RESIDUAL       RESIDUAL       RESIDUAL    
   LAYER,ROW,COL  LAYER,ROW,COL  LAYER,ROW,COL  LAYER,ROW,COL  LAYER,ROW,COL
 ---------------------------------------------------------------------------
  1 -0.2320      0 -0.7765E-01  0 -0.4035E-01  0 -0.1419E-01  0 -0.3764E-02
   (  1, 16,  5)  (  1, 15,  6)  (  1, 15,  6)  (  1, 17,  4)  (  1, 17,  4)
  0 -0.1780E-02  0 -0.5319E-03  0 -0.1908E-03  0  0.7809E-04  0 -0.3468E-04
   (  1, 14,  7)  (  1, 18,  3)  (  1, 18,  3)  (  1, 20,  3)  (  1, 13,  8)
  0 -0.1093E-04  0 -0.3819E-05  0 -0.1475E-05  0 -0.4639E-06  0 -0.1242E-06
   (  1, 19,  2)  (  1, 19,  2)  (  1, 12,  9)  (  1, 19,  2)  (  1, 18,  7)
  0  0.3657E-07  0 -0.9202E-08  0 -0.3421E-08  0 -0.1041E-08  0 -0.2814E-09
   (  1, 20,  2)  (  1, 11, 10)  (  1, 10, 11)  (  1, 10, 11)  (  1, 20, 20)
  0 -0.9330E-10  0 -0.5500E-10  0  0.1605E-10  1  0.1996E-08  0  0.8332E-09
   (  1, 16,  6)  (  1, 16,  6)  (  1, 16,  7)  (  1, 16,  5)  (  1, 16,  5)
  0 -0.2407E-09  0 -0.1179E-09  0  0.4572E-10  1  0.2428E-10
   (  1, 16,  6)  (  1, 16,  6)  (  1, 18,  3)  (  1, 18,  3)


        SENSITIVITY CALCULATION FOR GLOBAL OBSERVATION  3 P003T0000   


     3 CALLS TO PCG ROUTINE FOR TIME STEP   1 IN STRESS PERIOD    1
    28 TOTAL ITERATIONS

 MAXIMUM HEAD CHANGE FOR EACH ITERATION (1 INDICATES THE FIRST INNER ITERATION):

    HEAD CHANGE    HEAD CHANGE    HEAD CHANGE    HEAD CHANGE    HEAD CHANGE 
   LAYER,ROW,COL  LAYER,ROW,COL  LAYER,ROW,COL  LAYER,ROW,COL  LAYER,ROW,COL
 ---------------------------------------------------------------------------
  1   115.1      0   25.11      0   6.832      0   3.244      0  0.9696    
   (  1,  7,  7)  (  1,  7,  7)  (  1,  9,  5)  (  1,  6,  8)  (  1,  6,  8)
  0  0.2902      0 -0.1112      0  0.5801E-01  0 -0.1214E-01  0  0.6729E-02
   (  1, 12,  8)  (  1,  9, 13)  (  1, 17, 17)  (  1, 17, 17)  (  1, 13, 13)
  0  0.1229E-02  0  0.3483E-03  0 -0.1101E-03  0  0.2972E-04  0 -0.7608E-05
   (  1,  8, 19)  (  1,  4, 10)  (  1, 12, 15)  (  1, 18, 18)  (  1, 13, 13)
  0  0.3239E-05  0 -0.1295E-05  0  0.4257E-06  0 -0.1598E-06  0  0.4123E-07
   (  1, 17, 17)  (  1, 12, 12)  (  1, 13, 13)  (  1,  8, 11)  (  1, 11, 17)
  0 -0.7847E-08  1 -0.1333E-05  0 -0.4174E-06  0  0.9138E-07  0 -0.3458E-07
   (  1, 16, 18)  (  1,  7,  7)  (  1,  7,  7)  (  1, 11, 17)  (  1,  6,  8)
  0  0.1023E-07  0 -0.3514E-08  1  0.1903E-08
   (  1,  7, 10)  (  1,  8, 12)  (  1,  9, 13)

 MAXIMUM RESIDUAL FOR EACH ITERATION (1 INDICATES THE FIRST INNER ITERATION):

    RESIDUAL       RESIDUAL       RESIDUAL       RESIDUAL       RESIDUAL    
   LAYER,ROW,COL  LAYER,ROW,COL  LAYER,ROW,COL  LAYER,ROW,COL  LAYER,ROW,COL
 ---------------------------------------------------------------------------
  1 -0.3592      0 -0.9963E-01  0 -0.5130E-01  0 -0.1729E-01  0 -0.3651E-02
   (  1,  7,  7)  (  1,  7,  7)  (  1,  6,  8)  (  1,  6,  8)  (  1,  5,  9)
  0 -0.1965E-02  0 -0.5904E-03  0  0.1603E-03  0 -0.5723E-04  0 -0.1763E-04
   (  1,  5,  9)  (  1,  5,  9)  (  1,  5, 10)  (  1,  4, 10)  (  1,  4, 10)
  0  0.4093E-05  0 -0.1351E-05  0 -0.3938E-06  0 -0.9186E-07  0 -0.2319E-07
   (  1,  4, 11)  (  1,  3, 11)  (  1,  3, 11)  (  1,  3, 11)  (  1,  2, 12)
  0 -0.1015E-07  0 -0.5566E-08  0 -0.1785E-08  0 -0.4406E-09  0 -0.1047E-09
   (  1,  2, 12)  (  1,  2, 12)  (  1,  2, 12)  (  1,  2, 12)  (  1,  2, 12)
  0 -0.2083E-10  1  0.6196E-08  0 -0.1961E-08  0  0.7494E-09  0  0.2361E-09
   (  1,  5,  5)  (  1,  7,  7)  (  1,  6,  7)  (  1,  6,  8)  (  1,  6,  8)
  0 -0.7304E-10  0 -0.2689E-10  1 -0.1425E-10
   (  1,  5,  8)  (  1,  5,  8)  (  1,  8,  5)


        SENSITIVITY CALCULATION FOR GLOBAL OBSERVATION  4 P004T0000   


     3 CALLS TO PCG ROUTINE FOR TIME STEP   1 IN STRESS PERIOD    1
    30 TOTAL ITERATIONS

 MAXIMUM HEAD CHANGE FOR EACH ITERATION (1 INDICATES THE FIRST INNER ITERATION):

    HEAD CHANGE    HEAD CHANGE    HEAD CHANGE    HEAD CHANGE    HEAD CHANGE 
   LAYER,ROW,COL  LAYER,ROW,COL  LAYER,ROW,COL  LAYER,ROW,COL  LAYER,ROW,COL
 ---------------------------------------------------------------------------
  1   117.9      0   25.58      0  -8.044      0   3.297      0   1.174    
   (  1, 14,  7)  (  1, 14,  7)  (  1, 15, 15)  (  1, 13,  8)  (  1, 15,  6)
  0 -0.3434      0  0.1457      0  0.6911E-01  0  0.3027E-01  0  0.7750E-02
   (  1, 11, 16)  (  1,  9, 12)  (  1, 12,  9)  (  1, 14, 17)  (  1, 17, 15)
  0  0.3520E-02  0  0.1057E-02  0  0.3821E-03  0 -0.1631E-03  0 -0.4179E-04
   (  1, 11, 10)  (  1, 16, 13)  (  1, 11, 18)  (  1,  8, 15)  (  1, 10, 12)
  0  0.1677E-04  0 -0.4500E-05  0  0.1276E-05  0 -0.4507E-06  0 -0.1821E-06
   (  1,  9, 10)  (  1,  7,  8)  (  1,  9,  9)  (  1,  6, 17)  (  1, 15, 16)
  0  0.6371E-07  0 -0.2589E-07  0 -0.9865E-08  1  0.1341E-05  0  0.3811E-06
   (  1, 13, 14)  (  1, 12, 12)  (  1,  8, 14)  (  1, 14,  7)  (  1, 12, 10)
  0 -0.1027E-06  0 -0.3911E-07  0  0.1411E-07  0  0.4380E-08  1  0.1389E-08
   (  1, 15, 15)  (  1, 12, 17)  (  1, 15,  6)  (  1,  7, 16)  (  1, 18, 16)

 MAXIMUM RESIDUAL FOR EACH ITERATION (1 INDICATES THE FIRST INNER ITERATION):

    RESIDUAL       RESIDUAL       RESIDUAL       RESIDUAL       RESIDUAL    
   LAYER,ROW,COL  LAYER,ROW,COL  LAYER,ROW,COL  LAYER,ROW,COL  LAYER,ROW,COL
 ---------------------------------------------------------------------------
  1 -0.3501      0 -0.9015E-01  0 -0.5329E-01  0 -0.1941E-01  0 -0.3950E-02
   (  1, 14,  7)  (  1, 13,  8)  (  1, 13,  8)  (  1, 15,  6)  (  1, 12,  9)
  0 -0.1918E-02  0 -0.7354E-03  0 -0.2542E-03  0 -0.9085E-04  0 -0.4601E-04
   (  1, 16,  5)  (  1, 12,  9)  (  1, 16,  5)  (  1, 11, 10)  (  1, 11, 10)
  0 -0.1237E-04  0 -0.3434E-05  0 -0.1563E-05  0 -0.5142E-06  0 -0.1348E-06
   (  1, 17,  4)  (  1, 10, 11)  (  1, 18,  3)  (  1, 18,  3)  (  1, 18,  3)
  0 -0.3714E-07  0  0.1205E-07  0  0.4547E-08  0  0.1600E-08  0 -0.5318E-09
   (  1,  9, 12)  (  1, 18,  2)  (  1, 18,  2)  (  1, 18,  2)  (  1, 20, 20)
  0  0.1511E-09  0  0.8442E-10  0 -0.2769E-10  1 -0.2810E-08  0 -0.8222E-09
   (  1, 20,  2)  (  1, 20,  2)  (  1,  7, 14)  (  1, 14,  7)  (  1, 13,  9)
  0 -0.3609E-09  0 -0.1250E-09  0 -0.3794E-10  0 -0.1482E-10  1 -0.7163E-11
   (  1, 15,  6)  (  1, 13,  8)  (  1, 17,  5)  (  1, 16,  5)  (  1, 20,  2)


        SENSITIVITY CALCULATION FOR GLOBAL OBSERVATION  5 P005T0000   


     3 CALLS TO PCG ROUTINE FOR TIME STEP   1 IN STRESS PERIOD    1
    29 TOTAL ITERATIONS

 MAXIMUM HEAD CHANGE FOR EACH ITERATION (1 INDICATES THE FIRST INNER ITERATION):

    HEAD CHANGE    HEAD CHANGE    HEAD CHANGE    HEAD CHANGE    HEAD CHANGE 
   LAYER,ROW,COL  LAYER,ROW,COL  LAYER,ROW,COL  LAYER,ROW,COL  LAYER,ROW,COL
 ---------------------------------------------------------------------------
  1   116.3      0   19.49      0  -7.579      0   3.003      0  0.9736    
   (  1,  5, 10)  (  1,  5, 10)  (  1, 15, 13)  (  1,  6,  9)  (  1,  4, 11)
  0  0.3974      0 -0.1465      0  0.8366E-01  0 -0.2690E-01  0  0.8003E-02
   (  1,  8,  8)  (  1,  9,  9)  (  1, 14, 15)  (  1, 17, 17)  (  1,  3, 12)
  0  0.2771E-02  0  0.1079E-02  0  0.3487E-03  0 -0.1193E-03  0 -0.4985E-04
   (  1,  8,  9)  (  1, 15,  7)  (  1,  9,  6)  (  1, 16, 12)  (  1,  9, 17)
  0 -0.1222E-04  0  0.3308E-05  0  0.9131E-06  0  0.3424E-06  0  0.1337E-06
   (  1, 17,  7)  (  1, 10,  5)  (  1, 18, 16)  (  1, 14, 17)  (  1, 11,  4)
  0  0.3771E-07  0  0.1164E-07  0 -0.6082E-08  1 -0.9422E-06  0 -0.2019E-06
   (  1, 10,  7)  (  1,  6, 16)  (  1, 12, 10)  (  1,  5, 10)  (  1,  5, 10)
  0  0.7867E-07  0 -0.3129E-07  0  0.9217E-08  1 -0.4348E-08
   (  1, 13, 12)  (  1,  6,  9)  (  1, 11, 16)  (  1, 10, 11)

 MAXIMUM RESIDUAL FOR EACH ITERATION (1 INDICATES THE FIRST INNER ITERATION):

    RESIDUAL       RESIDUAL       RESIDUAL       RESIDUAL       RESIDUAL    
   LAYER,ROW,COL  LAYER,ROW,COL  LAYER,ROW,COL  LAYER,ROW,COL  LAYER,ROW,COL
 ---------------------------------------------------------------------------
  1 -0.2910      0 -0.7975E-01  0 -0.4792E-01  0 -0.1651E-01  0 -0.3585E-02
   (  1,  5, 10)  (  1,  6,  9)  (  1,  6,  9)  (  1,  6,  9)  (  1,  7,  8)
  0 -0.1809E-02  0 -0.8002E-03  0 -0.3344E-03  0 -0.1173E-03  0 -0.3709E-04
   (  1,  7,  8)  (  1,  7,  8)  (  1,  3, 12)  (  1,  3, 12)  (  1,  8,  7)
  0 -0.1119E-04  0 -0.3956E-05  0 -0.1415E-05  0 -0.4620E-06  0  0.1142E-06
   (  1,  2, 13)  (  1,  2, 13)  (  1,  2, 13)  (  1,  2, 13)  (  1,  2, 14)
  0 -0.4002E-07  0 -0.8312E-08  0  0.2825E-08  0 -0.1423E-08  0 -0.3778E-09
   (  1, 10,  5)  (  1, 10,  5)  (  1,  2, 14)  (  1, 11,  4)  (  1, 11,  4)
  0 -0.1077E-09  0 -0.4210E-10  0 -0.2385E-10  1  0.2248E-08  0  0.8897E-09
   (  1, 11,  4)  (  1, 12,  3)  (  1, 12,  3)  (  1,  4, 11)  (  1,  4, 11)
  0  0.2795E-09  0  0.9723E-10  0  0.3815E-10  1  0.2368E-10
   (  1,  3, 12)  (  1,  3, 12)  (  1,  2, 13)  (  1,  2, 13)


        SENSITIVITY CALCULATION FOR GLOBAL OBSERVATION  6 P006T0000   


     3 CALLS TO PCG ROUTINE FOR TIME STEP   1 IN STRESS PERIOD    1
    30 TOTAL ITERATIONS

 MAXIMUM HEAD CHANGE FOR EACH ITERATION (1 INDICATES THE FIRST INNER ITERATION):

    HEAD CHANGE    HEAD CHANGE    HEAD CHANGE    HEAD CHANGE    HEAD CHANGE 
   LAYER,ROW,COL  LAYER,ROW,COL  LAYER,ROW,COL  LAYER,ROW,COL  LAYER,ROW,COL
 ---------------------------------------------------------------------------
  1   112.4      0   28.85      0  -6.341      0   3.260      0   1.140    
   (  1, 16, 10)  (  1, 16, 10)  (  1, 17, 17)  (  1, 15, 11)  (  1, 17,  9)
  0 -0.3173      0 -0.1849      0  0.9898E-01  0 -0.1874E-01  0  0.7564E-02
   (  1,  8, 13)  (  1, 13, 11)  (  1, 14, 12)  (  1, 14, 13)  (  1, 18, 16)
  0  0.2461E-02  0 -0.7257E-03  0  0.2833E-03  0 -0.1381E-03  0 -0.4313E-04
   (  1, 16, 19)  (  1, 12, 17)  (  1, 14, 17)  (  1, 11, 14)  (  1,  8, 15)
  0  0.1074E-04  0 -0.3451E-05  0 -0.1306E-05  0  0.4331E-06  0 -0.1925E-06
   (  1,  7, 14)  (  1, 11, 18)  (  1, 11,  7)  (  1, 14, 16)  (  1, 16, 17)
  0  0.5364E-07  0 -0.2814E-07  0  0.8104E-08  1 -0.4852E-06  0  0.2576E-06
   (  1, 13, 13)  (  1, 13, 12)  (  1, 11, 11)  (  1, 17, 11)  (  1, 16,  9)
  0  0.9735E-07  0 -0.2863E-07  0  0.1302E-07  0  0.4112E-08  1 -0.1467E-08
   (  1, 13, 13)  (  1, 15, 16)  (  1, 16, 10)  (  1, 11, 17)  (  1,  9, 10)

 MAXIMUM RESIDUAL FOR EACH ITERATION (1 INDICATES THE FIRST INNER ITERATION):

    RESIDUAL       RESIDUAL       RESIDUAL       RESIDUAL       RESIDUAL    
   LAYER,ROW,COL  LAYER,ROW,COL  LAYER,ROW,COL  LAYER,ROW,COL  LAYER,ROW,COL
 ---------------------------------------------------------------------------
  1 -0.3979      0 -0.1007      0 -0.5820E-01  0 -0.1931E-01  0 -0.4834E-02
   (  1, 16, 10)  (  1, 16, 10)  (  1, 17,  9)  (  1, 17,  9)  (  1, 15, 11)
  0 -0.1937E-02  0 -0.1255E-02  0 -0.2800E-03  0 -0.1025E-03  0 -0.4163E-04
   (  1, 14, 12)  (  1, 14, 12)  (  1, 18,  8)  (  1, 13, 13)  (  1, 19,  7)
  0 -0.9084E-05  0 -0.3227E-05  0 -0.9607E-06  0 -0.3546E-06  0  0.1035E-06
   (  1, 19,  7)  (  1, 20, 20)  (  1, 20,  6)  (  1, 12, 14)  (  1, 20, 20)
  0  0.4430E-07  0  0.1239E-07  0 -0.2843E-08  0 -0.1352E-08  0 -0.5312E-09
   (  1, 20, 20)  (  1, 20, 20)  (  1, 11, 15)  (  1, 10, 16)  (  1, 10, 16)
  0 -0.2338E-09  0 -0.9624E-10  0 -0.2452E-10  1 -0.2589E-08  0 -0.9929E-09
   (  1, 10, 16)  (  1, 20, 20)  (  1, 20, 20)  (  1, 16,  9)  (  1, 16,  9)
  0 -0.2806E-09  0 -0.1277E-09  0 -0.4440E-10  0 -0.1253E-10  1 -0.5844E-11
   (  1, 15, 10)  (  1, 17,  8)  (  1, 14, 11)  (  1, 19,  7)  (  1, 14, 11)


        SENSITIVITY CALCULATION FOR GLOBAL OBSERVATION  7 P007T0000   


     3 CALLS TO PCG ROUTINE FOR TIME STEP   1 IN STRESS PERIOD    1
    30 TOTAL ITERATIONS

 MAXIMUM HEAD CHANGE FOR EACH ITERATION (1 INDICATES THE FIRST INNER ITERATION):

    HEAD CHANGE    HEAD CHANGE    HEAD CHANGE    HEAD CHANGE    HEAD CHANGE 
   LAYER,ROW,COL  LAYER,ROW,COL  LAYER,ROW,COL  LAYER,ROW,COL  LAYER,ROW,COL
 ---------------------------------------------------------------------------
  1   117.9      0   25.58      0  -8.044      0   3.297      0   1.174    
   (  1,  7, 14)  (  1,  7, 14)  (  1, 15, 15)  (  1,  8, 13)  (  1,  6, 15)
  0 -0.3434      0  0.1457      0  0.6911E-01  0  0.3027E-01  0  0.7750E-02
   (  1, 16, 11)  (  1, 12,  9)  (  1,  9, 12)  (  1, 17, 14)  (  1, 15, 17)
  0  0.3520E-02  0  0.1057E-02  0  0.3821E-03  0 -0.1631E-03  0 -0.4179E-04
   (  1, 10, 11)  (  1, 13, 16)  (  1, 18, 11)  (  1, 15,  8)  (  1, 12, 10)
  0  0.1677E-04  0 -0.4500E-05  0  0.1276E-05  0 -0.4507E-06  0 -0.1821E-06
   (  1, 10,  9)  (  1,  8,  7)  (  1,  9,  9)  (  1, 17,  6)  (  1, 16, 15)
  0  0.6371E-07  0 -0.2589E-07  0 -0.9865E-08  1  0.1341E-05  0  0.3811E-06
   (  1, 14, 13)  (  1, 12, 12)  (  1, 14,  8)  (  1,  7, 14)  (  1, 10, 12)
  0 -0.1027E-06  0 -0.3911E-07  0  0.1411E-07  0  0.4380E-08  1  0.1389E-08
   (  1, 15, 15)  (  1, 17, 12)  (  1,  6, 15)  (  1, 16,  7)  (  1, 16, 18)

 MAXIMUM RESIDUAL FOR EACH ITERATION (1 INDICATES THE FIRST INNER ITERATION):

    RESIDUAL       RESIDUAL       RESIDUAL       RESIDUAL       RESIDUAL    
   LAYER,ROW,COL  LAYER,ROW,COL  LAYER,ROW,COL  LAYER,ROW,COL  LAYER,ROW,COL
 ---------------------------------------------------------------------------
  1 -0.3501      0 -0.9015E-01  0 -0.5329E-01  0 -0.1941E-01  0 -0.3950E-02
   (  1,  7, 14)  (  1,  8, 13)  (  1,  8, 13)  (  1,  6, 15)  (  1,  9, 12)
  0 -0.1918E-02  0 -0.7354E-03  0 -0.2542E-03  0 -0.9085E-04  0 -0.4601E-04
   (  1,  5, 16)  (  1,  9, 12)  (  1,  5, 16)  (  1, 10, 11)  (  1, 10, 11)
  0 -0.1237E-04  0 -0.3434E-05  0 -0.1563E-05  0 -0.5142E-06  0 -0.1348E-06
   (  1,  4, 17)  (  1, 11, 10)  (  1,  3, 18)  (  1,  3, 18)  (  1,  3, 18)
  0 -0.3714E-07  0  0.1205E-07  0  0.4547E-08  0  0.1600E-08  0 -0.5318E-09
   (  1, 12,  9)  (  1,  2, 18)  (  1,  2, 18)  (  1,  2, 18)  (  1, 20, 20)
  0  0.1511E-09  0  0.8442E-10  0 -0.2769E-10  1 -0.2810E-08  0 -0.8222E-09
   (  1,  2, 20)  (  1,  2, 20)  (  1, 14,  7)  (  1,  7, 14)  (  1,  9, 13)
  0 -0.3609E-09  0 -0.1250E-09  0 -0.3794E-10  0 -0.1482E-10  1 -0.7163E-11
   (  1,  6, 15)  (  1,  8, 13)  (  1,  5, 17)  (  1,  5, 16)  (  1,  2, 20)


        SENSITIVITY CALCULATION FOR GLOBAL OBSERVATION  8 P008T0000   


     3 CALLS TO PCG ROUTINE FOR TIME STEP   1 IN STRESS PERIOD    1
    28 TOTAL ITERATIONS

 MAXIMUM HEAD CHANGE FOR EACH ITERATION (1 INDICATES THE FIRST INNER ITERATION):

    HEAD CHANGE    HEAD CHANGE    HEAD CHANGE    HEAD CHANGE    HEAD CHANGE 
   LAYER,ROW,COL  LAYER,ROW,COL  LAYER,ROW,COL  LAYER,ROW,COL  LAYER,ROW,COL
 ---------------------------------------------------------------------------
  1   107.2      0   37.99      0   6.460      0   3.181      0 -0.9935    
   (  1, 14, 14)  (  1, 14, 14)  (  1, 14, 14)  (  1, 13, 15)  (  1, 17, 17)
  0 -0.2765      0 -0.1215      0 -0.3991E-01  0 -0.1538E-01  0  0.5976E-02
   (  1,  8, 15)  (  1, 13, 17)  (  1,  7, 17)  (  1, 10, 10)  (  1,  8,  8)
  0  0.1156E-02  0  0.2968E-03  0  0.7753E-04  0  0.2309E-04  0  0.9208E-05
   (  1, 15, 19)  (  1, 20, 20)  (  1, 20, 20)  (  1, 10, 18)  (  1, 15, 15)
  0 -0.5380E-05  0  0.1371E-05  0  0.4847E-06  0 -0.1367E-06  0 -0.2343E-07
   (  1, 12, 12)  (  1, 11, 11)  (  1, 19, 19)  (  1, 17, 17)  (  1,  7, 20)
  0  0.6475E-08  1  0.1712E-05  0  0.5150E-06  0  0.1411E-06  0 -0.4379E-07
   (  1, 12, 12)  (  1, 14, 14)  (  1, 14, 14)  (  1, 16, 13)  (  1, 19, 15)
  0 -0.1764E-07  0 -0.5749E-08  1 -0.1727E-08
   (  1, 17, 17)  (  1, 11, 11)  (  1, 17,  7)

 MAXIMUM RESIDUAL FOR EACH ITERATION (1 INDICATES THE FIRST INNER ITERATION):

    RESIDUAL       RESIDUAL       RESIDUAL       RESIDUAL       RESIDUAL    
   LAYER,ROW,COL  LAYER,ROW,COL  LAYER,ROW,COL  LAYER,ROW,COL  LAYER,ROW,COL
 ---------------------------------------------------------------------------
  1 -0.4784      0 -0.1113      0 -0.5043E-01  0 -0.1447E-01  0 -0.4345E-02
   (  1, 14, 14)  (  1, 14, 14)  (  1, 13, 15)  (  1, 13, 15)  (  1, 12, 16)
  0 -0.1697E-02  0 -0.5987E-03  0 -0.1487E-03  0 -0.6668E-04  0 -0.1523E-04
   (  1, 12, 16)  (  1, 12, 16)  (  1, 11, 17)  (  1, 11, 17)  (  1, 11, 17)
  0 -0.5387E-05  0 -0.9975E-06  0 -0.2773E-06  0  0.9189E-07  0  0.5495E-07
   (  1, 20, 20)  (  1, 20, 20)  (  1, 10, 18)  (  1, 20, 20)  (  1, 20, 20)
  0  0.2121E-07  0  0.4081E-08  0 -0.1408E-08  0  0.2416E-09  0 -0.9401E-10
   (  1, 20, 20)  (  1,  9, 20)  (  1,  8, 20)  (  1,  7, 20)  (  1, 20, 20)
  0 -0.1629E-10  1 -0.3574E-08  0 -0.1231E-08  0 -0.4098E-09  0 -0.1473E-09
   (  1, 20, 20)  (  1, 14, 14)  (  1, 13, 16)  (  1, 14, 15)  (  1, 15, 14)
  0 -0.4074E-10  0  0.1198E-10  1 -0.6681E-11
   (  1, 14, 15)  (  1, 13, 15)  (  1, 15, 14)


        SENSITIVITY CALCULATION FOR GLOBAL OBSERVATION  9 P009T0000   


     3 CALLS TO PCG ROUTINE FOR TIME STEP   1 IN STRESS PERIOD    1
    29 TOTAL ITERATIONS

 MAXIMUM HEAD CHANGE FOR EACH ITERATION (1 INDICATES THE FIRST INNER ITERATION):

    HEAD CHANGE    HEAD CHANGE    HEAD CHANGE    HEAD CHANGE    HEAD CHANGE 
   LAYER,ROW,COL  LAYER,ROW,COL  LAYER,ROW,COL  LAYER,ROW,COL  LAYER,ROW,COL
 ---------------------------------------------------------------------------
  1   117.4      0   19.84      0  -5.787      0  -2.595      0 -0.9077    
   (  1,  5, 16)  (  1,  9, 14)  (  1, 13, 17)  (  1, 16, 14)  (  1, 18, 11)
  0  0.2890      0  0.9605E-01  0  0.3703E-01  0 -0.1634E-01  0  0.9563E-02
   (  1, 15,  8)  (  1, 19, 16)  (  1, 16, 16)  (  1, 14, 13)  (  1, 11, 11)
  0 -0.3028E-02  0  0.9662E-03  0 -0.3942E-03  0  0.1280E-03  0  0.3922E-04
   (  1,  9,  9)  (  1, 18, 12)  (  1, 14, 10)  (  1, 13,  8)  (  1,  8,  9)
  0  0.9045E-05  0  0.3415E-05  0 -0.9947E-06  0 -0.3003E-06  0  0.1114E-06
   (  1,  7, 18)  (  1, 11,  9)  (  1,  8,  6)  (  1, 17, 15)  (  1,  9, 12)
  0 -0.3668E-07  0 -0.1397E-07  0 -0.6373E-08  1  0.5048E-06  0  0.1407E-06
   (  1, 11, 13)  (  1, 14, 11)  (  1, 15, 18)  (  1,  5, 15)  (  1, 11, 13)
  0 -0.5249E-07  0 -0.2474E-07  0 -0.6838E-08  1  0.2381E-08
   (  1, 14, 16)  (  1, 17, 13)  (  1, 17,  8)  (  1, 16,  8)

 MAXIMUM RESIDUAL FOR EACH ITERATION (1 INDICATES THE FIRST INNER ITERATION):

    RESIDUAL       RESIDUAL       RESIDUAL       RESIDUAL       RESIDUAL    
   LAYER,ROW,COL  LAYER,ROW,COL  LAYER,ROW,COL  LAYER,ROW,COL  LAYER,ROW,COL
 ---------------------------------------------------------------------------
  1 -0.2320      0 -0.7765E-01  0 -0.4035E-01  0 -0.1419E-01  0 -0.3764E-02
   (  1,  5, 16)  (  1,  6, 15)  (  1,  6, 15)  (  1,  4, 17)  (  1,  4, 17)
  0 -0.1780E-02  0 -0.5319E-03  0 -0.1908E-03  0  0.7809E-04  0 -0.3468E-04
   (  1,  7, 14)  (  1,  3, 18)  (  1,  3, 18)  (  1,  3, 20)  (  1,  8, 13)
  0 -0.1093E-04  0 -0.3819E-05  0 -0.1475E-05  0 -0.4639E-06  0 -0.1242E-06
   (  1,  2, 19)  (  1,  2, 19)  (  1,  9, 12)  (  1,  2, 19)  (  1,  7, 18)
  0  0.3657E-07  0 -0.9202E-08  0 -0.3421E-08  0 -0.1041E-08  0 -0.2814E-09
   (  1,  2, 20)  (  1, 10, 11)  (  1, 11, 10)  (  1, 11, 10)  (  1, 20, 20)
  0 -0.9330E-10  0 -0.5500E-10  0  0.1605E-10  1  0.1996E-08  0  0.8332E-09
   (  1,  6, 16)  (  1,  6, 16)  (  1,  7, 16)  (  1,  5, 16)  (  1,  5, 16)
  0 -0.2407E-09  0 -0.1179E-09  0  0.4572E-10  1  0.2428E-10
   (  1,  6, 16)  (  1,  6, 16)  (  1,  3, 18)  (  1,  3, 18)


        SENSITIVITY CALCULATION FOR GLOBAL OBSERVATION 10 P010T0000   


     3 CALLS TO PCG ROUTINE FOR TIME STEP   1 IN STRESS PERIOD    1
    30 TOTAL ITERATIONS

 MAXIMUM HEAD CHANGE FOR EACH ITERATION (1 INDICATES THE FIRST INNER ITERATION):

    HEAD CHANGE    HEAD CHANGE    HEAD CHANGE    HEAD CHANGE    HEAD CHANGE 
   LAYER,ROW,COL  LAYER,ROW,COL  LAYER,ROW,COL  LAYER,ROW,COL  LAYER,ROW,COL
 ---------------------------------------------------------------------------
  1   112.4      0   28.85      0  -6.341      0   3.260      0   1.140    
   (  1, 10, 16)  (  1, 10, 16)  (  1, 17, 17)  (  1, 11, 15)  (  1,  9, 17)
  0 -0.3173      0 -0.1849      0  0.9898E-01  0 -0.1874E-01  0  0.7564E-02
   (  1, 13,  8)  (  1, 11, 13)  (  1, 12, 14)  (  1, 13, 14)  (  1, 16, 18)
  0  0.2461E-02  0 -0.7257E-03  0  0.2833E-03  0 -0.1381E-03  0 -0.4313E-04
   (  1, 19, 16)  (  1, 17, 12)  (  1, 17, 14)  (  1, 14, 11)  (  1, 15,  8)
  0  0.1074E-04  0 -0.3451E-05  0 -0.1306E-05  0  0.4331E-06  0 -0.1925E-06
   (  1, 14,  7)  (  1, 18, 11)  (  1,  7, 11)  (  1, 16, 14)  (  1, 17, 16)
  0  0.5364E-07  0 -0.2814E-07  0  0.8104E-08  1 -0.4852E-06  0  0.2576E-06
   (  1, 13, 13)  (  1, 12, 13)  (  1, 11, 11)  (  1, 11, 17)  (  1,  9, 16)
  0  0.9735E-07  0 -0.2863E-07  0  0.1302E-07  0  0.4112E-08  1 -0.1467E-08
   (  1, 13, 13)  (  1, 16, 15)  (  1, 10, 16)  (  1, 17, 11)  (  1, 10,  9)

 MAXIMUM RESIDUAL FOR EACH ITERATION (1 INDICATES THE FIRST INNER ITERATION):

    RESIDUAL       RESIDUAL       RESIDUAL       RESIDUAL       RESIDUAL    
   LAYER,ROW,COL  LAYER,ROW,COL  LAYER,ROW,COL  LAYER,ROW,COL  LAYER,ROW,COL
 ---------------------------------------------------------------------------
  1 -0.3979      0 -0.1007      0 -0.5820E-01  0 -0.1931E-01  0 -0.4834E-02
   (  1, 10, 16)  (  1, 10, 16)  (  1,  9, 17)  (  1,  9, 17)  (  1, 11, 15)
  0 -0.1937E-02  0 -0.1255E-02  0 -0.2800E-03  0 -0.1025E-03  0 -0.4163E-04
   (  1, 12, 14)  (  1, 12, 14)  (  1,  8, 18)  (  1, 13, 13)  (  1,  7, 19)
  0 -0.9084E-05  0 -0.3227E-05  0 -0.9607E-06  0 -0.3546E-06  0  0.1035E-06
   (  1,  7, 19)  (  1, 20, 20)  (  1,  6, 20)  (  1, 14, 12)  (  1, 20, 20)
  0  0.4430E-07  0  0.1239E-07  0 -0.2843E-08  0 -0.1352E-08  0 -0.5312E-09
   (  1, 20, 20)  (  1, 20, 20)  (  1, 15, 11)  (  1, 16, 10)  (  1, 16, 10)
  0 -0.2338E-09  0 -0.9624E-10  0 -0.2452E-10  1 -0.2589E-08  0 -0.9929E-09
   (  1, 16, 10)  (  1, 20, 20)  (  1, 20, 20)  (  1,  9, 16)  (  1,  9, 16)
  0 -0.2806E-09  0 -0.1277E-09  0 -0.4440E-10  0 -0.1253E-10  1 -0.5844E-11
   (  1, 10, 15)  (  1,  8, 17)  (  1, 11, 14)  (  1,  7, 19)  (  1, 11, 14)


        SENSITIVITY CALCULATION FOR GLOBAL OBSERVATION 11 P011T0000   


     3 CALLS TO PCG ROUTINE FOR TIME STEP   1 IN STRESS PERIOD    1
    28 TOTAL ITERATIONS

 MAXIMUM HEAD CHANGE FOR EACH ITERATION (1 INDICATES THE FIRST INNER ITERATION):

    HEAD CHANGE    HEAD CHANGE    HEAD CHANGE    HEAD CHANGE    HEAD CHANGE 
   LAYER,ROW,COL  LAYER,ROW,COL  LAYER,ROW,COL  LAYER,ROW,COL  LAYER,ROW,COL
 ---------------------------------------------------------------------------
  1   102.7      0   31.51      0  -5.951      0   2.905      0 -0.7247    
   (  1, 16, 16)  (  1, 16, 16)  (  1,  9, 14)  (  1, 17, 15)  (  1, 18,  5)
  0 -0.2810      0 -0.1352      0  0.4743E-01  0  0.1338E-01  0  0.4874E-02
   (  1, 17, 10)  (  1, 17, 13)  (  1,  8,  8)  (  1, 17,  7)  (  1, 12, 12)
  0 -0.1250E-02  0  0.3441E-03  0  0.7929E-04  0  0.2134E-04  0 -0.6194E-05
   (  1, 14, 14)  (  1, 13, 13)  (  1, 20, 20)  (  1, 12, 14)  (  1, 11, 11)
  0  0.3651E-05  0  0.1278E-05  0 -0.3971E-06  0 -0.1403E-06  0  0.1738E-07
   (  1, 13, 13)  (  1, 11, 18)  (  1,  8,  8)  (  1, 11, 11)  (  1, 16, 19)
  0 -0.6666E-08  1 -0.1129E-05  0  0.2528E-06  0 -0.1096E-06  0 -0.4548E-07
   (  1, 14, 17)  (  1, 16, 16)  (  1, 15, 15)  (  1, 15, 18)  (  1, 15, 17)
  0 -0.1289E-07  0  0.3745E-08  1 -0.1341E-08
   (  1,  8,  8)  (  1, 17, 14)  (  1, 16, 13)

 MAXIMUM RESIDUAL FOR EACH ITERATION (1 INDICATES THE FIRST INNER ITERATION):

    RESIDUAL       RESIDUAL       RESIDUAL       RESIDUAL       RESIDUAL    
   LAYER,ROW,COL  LAYER,ROW,COL  LAYER,ROW,COL  LAYER,ROW,COL  LAYER,ROW,COL
 ---------------------------------------------------------------------------
  1 -0.4540      0 -0.1210      0 -0.5707E-01  0 -0.1421E-01  0 -0.3995E-02
   (  1, 16, 16)  (  1, 16, 16)  (  1, 15, 17)  (  1, 15, 17)  (  1, 14, 18)
  0 -0.1475E-02  0 -0.6259E-03  0  0.1653E-03  0 -0.6868E-04  0 -0.1421E-04
   (  1, 14, 18)  (  1, 14, 18)  (  1, 20, 20)  (  1, 13, 19)  (  1, 13, 19)
  0 -0.5146E-05  0 -0.1542E-05  0  0.2603E-06  0  0.6790E-07  0 -0.1945E-07
   (  1, 20, 20)  (  1, 20, 20)  (  1, 11, 20)  (  1, 11, 20)  (  1, 17, 18)
  0  0.1318E-07  0  0.4017E-08  0  0.7894E-09  0  0.2316E-09  0 -0.1278E-09
   (  1, 20, 20)  (  1, 20, 20)  (  1, 15, 18)  (  1, 18, 18)  (  1, 17, 17)
  0  0.2531E-10  1  0.4877E-08  0  0.1283E-08  0  0.7745E-09  0  0.1319E-09
   (  1, 16, 17)  (  1, 16, 16)  (  1, 15, 17)  (  1, 15, 17)  (  1, 15, 17)
  0  0.4889E-10  0  0.2372E-10  1  0.1174E-10
   (  1, 14, 18)  (  1, 14, 18)  (  1, 14, 18)


        SENSITIVITY CALCULATION FOR GLOBAL OBSERVATION 12 P012T0000   

 HEAD AND DRAWDOWN OBSERVATIONS
 OBSERVATION      OBSERVED      SIMULATED
   NAME             VALUE         VALUE      DIFFERENCE
 -------------------------------------------------------
 P001T0000       999.000       6.64247       992.358    
 P002T0000       999.000      -77.5928       1076.59    
 P003T0000       999.000      -70.3222       1069.32    
 P004T0000       999.000      -24.8661       1023.87    
 P005T0000       999.000      -174.511       1173.51    
 P006T0000       999.000       2.28188       996.718    
 P007T0000       999.000      -43.4114       1042.41    
 P008T0000       999.000       3.88120       995.119    
 P009T0000       999.000      -10.5759       1009.58    
 P010T0000       999.000       20.5925       978.407    
 P011T0000       999.000       6.26564       992.734    
 P012T0000       999.000       11.5298       987.470    

 SUM OF SQUARED DIFFERENCE:    1.27202E+07

 Run end date and time (yyyy/mm/dd hh:mm:ss): 2011/10/05 16:50:56
 Elapsed run time:  0.094 Seconds

