                        MODFLOW-ADJOINT Version 0.96 07/14/2007
            SENSITIVITY CALCULATIONS USING THE ADJOINT STATE METHOD FOR
      U.S. GEOLOGICAL SURVEY MODULAR FINITE-DIFFERENCE GROUND-WATER FLOW MODEL
                             VERSION 1.1 05/18/2006

 LIST FILE: S1_1_forward.lst
                         UNIT    7

 OPENING S1.bas
 FILE TYPE:BAS6   UNIT    1   STATUS:OLD    
 FORMAT:FORMATTED              ACCESS:SEQUENTIAL          

 OPENING S1_.dis
 FILE TYPE:DIS   UNIT   29   STATUS:OLD    
 FORMAT:FORMATTED              ACCESS:SEQUENTIAL          

 OPENING S1_.lpf
 FILE TYPE:LPF   UNIT   11   STATUS:OLD    
 FORMAT:FORMATTED              ACCESS:SEQUENTIAL          

 OPENING S1.zone
 FILE TYPE:ZONE   UNIT   13   STATUS:OLD    
 FORMAT:FORMATTED              ACCESS:SEQUENTIAL          

 OPENING S1_1.wel
 FILE TYPE:WEL   UNIT   12   STATUS:OLD    
 FORMAT:FORMATTED              ACCESS:SEQUENTIAL          

 OPENING S1.oc
 FILE TYPE:OC   UNIT   22   STATUS:OLD    
 FORMAT:FORMATTED              ACCESS:SEQUENTIAL          

 OPENING S1_.mul
 FILE TYPE:MULT   UNIT    8   STATUS:OLD    
 FORMAT:FORMATTED              ACCESS:SEQUENTIAL          

 OPENING S1.pcg
 FILE TYPE:PCG   UNIT   19   STATUS:OLD    
 FORMAT:FORMATTED              ACCESS:SEQUENTIAL          

 OPENING S1.chd
 FILE TYPE:CHD   UNIT   40   STATUS:OLD    
 FORMAT:FORMATTED              ACCESS:SEQUENTIAL          

 OPENING S1_1.hob
 FILE TYPE:HOB   UNIT   18   STATUS:OLD    
 FORMAT:FORMATTED              ACCESS:SEQUENTIAL          
#ADJ 35 S1_.adj                                                                                                                                                                                                                                                                                             
#DATA         44 S1_1_adj.out                                                                                                                                                                                                                                                                               
#DATA         75 S1_adj.pcg                                                                                                                                                                                                                                                                                 

 OPENING S1_1.hbs
 FILE TYPE:DATA   UNIT   14   STATUS:UNKNOWN
 FORMAT:FORMATTED              ACCESS:SEQUENTIAL          
#DATA         48 S1_1.sen                                                                                                                                                                                                                                                                                   

 OPENING S1.cbb
 FILE TYPE:DATA(BINARY)   UNIT   50   STATUS:UNKNOWN
 FORMAT:UNFORMATTED            ACCESS:SEQUENTIAL          

 OPENING S1.cbw
 FILE TYPE:DATA(BINARY)   UNIT   54   STATUS:UNKNOWN
 FORMAT:UNFORMATTED            ACCESS:SEQUENTIAL          

 OPENING S1.hds
 FILE TYPE:DATA(BINARY)   UNIT   30   STATUS:UNKNOWN
 FORMAT:UNFORMATTED            ACCESS:SEQUENTIAL          

 OPENING S1.ddn
 FILE TYPE:DATA(BINARY)   UNIT   31   STATUS:UNKNOWN
 FORMAT:UNFORMATTED            ACCESS:SEQUENTIAL          

 BAS -- BASIC PACKAGE, VERSION 7, 5/2/2005 INPUT READ FROM UNIT    1

 DISCRETIZATION INPUT DATA READ FROM UNIT   29
 # MODFLOW2000 Discretization File
    1 LAYERS        21 ROWS        21 COLUMNS
    1 STRESS PERIOD(S) IN SIMULATION
 MODEL TIME UNIT IS SECONDS
 MODEL LENGTH UNIT IS METERS
  Confining bed flag for each layer:
   0



                               DELR
 READING ON UNIT   29 WITH FORMAT: (10E12.4)           
   1.0000       1.0000       1.0000       1.0000       1.0000       1.0000       1.0000       1.0000       1.0000       1.0000    
   1.0000       1.0000       1.0000       1.0000       1.0000       1.0000       1.0000       1.0000       1.0000       1.0000    
   1.0000    



                               DELC
 READING ON UNIT   29 WITH FORMAT: (10E12.4)           
   1.0000       1.0000       1.0000       1.0000       1.0000       1.0000       1.0000       1.0000       1.0000       1.0000    
   1.0000       1.0000       1.0000       1.0000       1.0000       1.0000       1.0000       1.0000       1.0000       1.0000    
   1.0000    

 TOP ELEVATION OF LAYER 1 =   20.0000    

   MODEL LAYER BOTTOM EL. =   0.00000     FOR LAYER   1


 STRESS PERIOD     LENGTH       TIME STEPS     MULTIPLIER FOR DELT    SS FLAG
 ----------------------------------------------------------------------------
        1         1.000000          1                    1.000         SS

 STEADY-STATE SIMULATION



 
 # MODFLOW2005 Basic Package                                                     



                     BOUNDARY ARRAY FOR LAYER   1
 READING ON UNIT    1 WITH FORMAT: (FREE)              

 AQUIFER HEAD WILL BE SET TO  999.00     AT ALL NO-FLOW NODES (IBOUND=0).



                       INITIAL HEAD FOR LAYER   1
 READING ON UNIT    1 WITH FORMAT: (FREE)              

 OUTPUT CONTROL IS SPECIFIED ONLY AT TIME STEPS FOR WHICH OUTPUT IS DESIRED
 HEAD PRINT FORMAT CODE IS   0    DRAWDOWN PRINT FORMAT CODE IS   0
 HEADS WILL BE SAVED ON UNIT   30    DRAWDOWNS WILL BE SAVED ON UNIT   31

 ZONE OPTION, INPUT READ FROM UNIT   13
 # MODFLOW2000 Zone File
     1 ZONE ARRAYS

 MULTIPLIER OPTION, INPUT READ FROM UNIT    8
 # MODFLOW2005 multiplier Package Parent MD
   1 MULTIPLIER ARRAYS



            MULT. ARRAY: M1        
 READING ON UNIT    8 WITH FORMAT: (FREE)              

            1           2           3           4           5           6           7           8           9          10
           11          12          13          14          15          16          17          18          19          20
           21
 ........................................................................................................................
   1   2.0109E-04  2.0109E-04  2.0108E-04  2.0108E-04  2.0106E-04  2.0105E-04  2.0103E-04  2.0101E-04  2.0099E-04  2.0096E-04
       2.0093E-04  2.0088E-04  2.0083E-04  2.0077E-04  2.0071E-04  2.0066E-04  2.0062E-04  2.0058E-04  2.0056E-04  2.0053E-04
       2.0052E-04
   2   2.0110E-04  2.0110E-04  2.0109E-04  2.0108E-04  2.0107E-04  2.0106E-04  2.0104E-04  2.0103E-04  2.0101E-04  2.0099E-04
       2.0096E-04  2.0092E-04  2.0086E-04  2.0080E-04  2.0074E-04  2.0068E-04  2.0063E-04  2.0059E-04  2.0056E-04  2.0054E-04
       2.0052E-04
   3   2.0111E-04  2.0111E-04  2.0110E-04  2.0109E-04  2.0107E-04  2.0105E-04  2.0104E-04  2.0103E-04  2.0103E-04  2.0102E-04
       2.0100E-04  2.0096E-04  2.0092E-04  2.0086E-04  2.0079E-04  2.0072E-04  2.0066E-04  2.0061E-04  2.0058E-04  2.0055E-04
       2.0053E-04
   4   2.0111E-04  2.0111E-04  2.0110E-04  2.0108E-04  2.0106E-04  2.0104E-04  2.0102E-04  2.0102E-04  2.0103E-04  2.0104E-04
       2.0104E-04  2.0102E-04  2.0099E-04  2.0094E-04  2.0087E-04  2.0078E-04  2.0071E-04  2.0065E-04  2.0060E-04  2.0057E-04
       2.0054E-04
   5   2.0111E-04  2.0110E-04  2.0109E-04  2.0106E-04  2.0103E-04  2.0101E-04  2.0100E-04  2.0101E-04  2.0102E-04  2.0105E-04
       2.0106E-04  2.0107E-04  2.0106E-04  2.0103E-04  2.0097E-04  2.0088E-04  2.0078E-04  2.0071E-04  2.0065E-04  2.0060E-04
       2.0057E-04
   6   2.0111E-04  2.0110E-04  2.0108E-04  2.0105E-04  2.0101E-04  2.0100E-04  2.0099E-04  2.0100E-04  2.0102E-04  2.0105E-04
       2.0108E-04  2.0111E-04  2.0111E-04  2.0110E-04  2.0105E-04  2.0097E-04  2.0087E-04  2.0077E-04  2.0070E-04  2.0064E-04
       2.0059E-04
   7   2.0111E-04  2.0109E-04  2.0107E-04  2.0104E-04  2.0102E-04  2.0101E-04  2.0101E-04  2.0102E-04  2.0104E-04  2.0107E-04
       2.0110E-04  2.0113E-04  2.0115E-04  2.0114E-04  2.0111E-04  2.0103E-04  2.0093E-04  2.0084E-04  2.0075E-04  2.0068E-04
       2.0062E-04
   8   2.0110E-04  2.0109E-04  2.0107E-04  2.0105E-04  2.0104E-04  2.0104E-04  2.0105E-04  2.0106E-04  2.0106E-04  2.0109E-04
       2.0112E-04  2.0115E-04  2.0117E-04  2.0116E-04  2.0113E-04  2.0107E-04  2.0098E-04  2.0089E-04  2.0080E-04  2.0072E-04
       2.0065E-04
   9   2.0110E-04  2.0109E-04  2.0108E-04  2.0107E-04  2.0106E-04  2.0107E-04  2.0107E-04  2.0108E-04  2.0108E-04  2.0110E-04
       2.0113E-04  2.0115E-04  2.0117E-04  2.0116E-04  2.0114E-04  2.0109E-04  2.0102E-04  2.0092E-04  2.0083E-04  2.0074E-04
       2.0067E-04
  10   2.0110E-04  2.0109E-04  2.0108E-04  2.0107E-04  2.0107E-04  2.0108E-04  2.0108E-04  2.0109E-04  2.0109E-04  2.0110E-04
       2.0112E-04  2.0115E-04  2.0116E-04  2.0116E-04  2.0114E-04  2.0110E-04  2.0103E-04  2.0094E-04  2.0085E-04  2.0076E-04
       2.0068E-04
  11   2.0110E-04  2.0109E-04  2.0108E-04  2.0107E-04  2.0107E-04  2.0108E-04  2.0108E-04  2.0108E-04  2.0109E-04  2.0110E-04
       2.0112E-04  2.0114E-04  2.0116E-04  2.0116E-04  2.0115E-04  2.0110E-04  2.0103E-04  2.0094E-04  2.0085E-04  2.0076E-04
       2.0068E-04
  12   2.0109E-04  2.0109E-04  2.0108E-04  2.0107E-04  2.0107E-04  2.0107E-04  2.0107E-04  2.0108E-04  2.0108E-04  2.0109E-04
       2.0111E-04  2.0113E-04  2.0115E-04  2.0117E-04  2.0116E-04  2.0111E-04  2.0103E-04  2.0093E-04  2.0083E-04  2.0074E-04
       2.0066E-04
  13   2.0109E-04  2.0108E-04  2.0107E-04  2.0107E-04  2.0106E-04  2.0106E-04  2.0107E-04  2.0107E-04  2.0108E-04  2.0109E-04
       2.0110E-04  2.0113E-04  2.0116E-04  2.0118E-04  2.0117E-04  2.0111E-04  2.0101E-04  2.0090E-04  2.0079E-04  2.0070E-04
       2.0063E-04
  14   2.0108E-04  2.0107E-04  2.0107E-04  2.0106E-04  2.0105E-04  2.0106E-04  2.0106E-04  2.0107E-04  2.0108E-04  2.0109E-04
       2.0111E-04  2.0113E-04  2.0116E-04  2.0119E-04  2.0118E-04  2.0109E-04  2.0097E-04  2.0084E-04  2.0074E-04  2.0066E-04
       2.0060E-04
  15   2.0107E-04  2.0107E-04  2.0106E-04  2.0105E-04  2.0105E-04  2.0105E-04  2.0105E-04  2.0106E-04  2.0107E-04  2.0109E-04
       2.0111E-04  2.0113E-04  2.0116E-04  2.0118E-04  2.0114E-04  2.0104E-04  2.0090E-04  2.0077E-04  2.0068E-04  2.0061E-04
       2.0055E-04
  16   2.0106E-04  2.0105E-04  2.0105E-04  2.0105E-04  2.0104E-04  2.0104E-04  2.0104E-04  2.0105E-04  2.0106E-04  2.0107E-04
       2.0109E-04  2.0111E-04  2.0112E-04  2.0111E-04  2.0106E-04  2.0093E-04  2.0080E-04  2.0069E-04  2.0061E-04  2.0055E-04
       2.0051E-04
  17   2.0104E-04  2.0104E-04  2.0104E-04  2.0103E-04  2.0103E-04  2.0102E-04  2.0102E-04  2.0102E-04  2.0102E-04  2.0103E-04
       2.0104E-04  2.0104E-04  2.0104E-04  2.0100E-04  2.0093E-04  2.0081E-04  2.0071E-04  2.0062E-04  2.0056E-04  2.0051E-04
       2.0048E-04
  18   2.0103E-04  2.0102E-04  2.0102E-04  2.0101E-04  2.0100E-04  2.0100E-04  2.0099E-04  2.0098E-04  2.0098E-04  2.0097E-04
       2.0097E-04  2.0096E-04  2.0093E-04  2.0088E-04  2.0081E-04  2.0071E-04  2.0063E-04  2.0056E-04  2.0051E-04  2.0047E-04
       2.0045E-04
  19   2.0101E-04  2.0100E-04  2.0099E-04  2.0099E-04  2.0098E-04  2.0097E-04  2.0095E-04  2.0094E-04  2.0093E-04  2.0091E-04
       2.0090E-04  2.0087E-04  2.0083E-04  2.0078E-04  2.0071E-04  2.0064E-04  2.0057E-04  2.0052E-04  2.0048E-04  2.0045E-04
       2.0043E-04
  20   2.0099E-04  2.0098E-04  2.0097E-04  2.0096E-04  2.0095E-04  2.0093E-04  2.0092E-04  2.0090E-04  2.0088E-04  2.0086E-04
       2.0083E-04  2.0080E-04  2.0075E-04  2.0070E-04  2.0064E-04  2.0058E-04  2.0053E-04  2.0049E-04  2.0046E-04  2.0043E-04
       2.0042E-04
  21   2.0097E-04  2.0096E-04  2.0095E-04  2.0094E-04  2.0092E-04  2.0090E-04  2.0089E-04  2.0086E-04  2.0084E-04  2.0081E-04
       2.0078E-04  2.0074E-04  2.0070E-04  2.0065E-04  2.0060E-04  2.0055E-04  2.0051E-04  2.0047E-04  2.0045E-04  2.0042E-04
       2.0041E-04



             ZONE ARRAY: khz1      
 READING ON UNIT   13 WITH FORMAT: (FREE)              

 LPF -- LAYER-PROPERTY FLOW PACKAGE, VERSION 7, 5/2/2005
         INPUT READ FROM UNIT   11
 # MODFLOW2005 Layer Property Flow (LPF) Package Parent MD
 CELL-BY-CELL FLOWS WILL BE SAVED ON UNIT   50
 HEAD AT CELLS THAT CONVERT TO DRY=   999.00    
     1 Named Parameters     

   LAYER FLAGS:
 LAYER       LAYTYP        LAYAVG         CHANI        LAYVKA        LAYWET
 ---------------------------------------------------------------------------
    1             0             0     1.000E+00             1             0

   INTERPRETATION OF LAYER FLAGS:
                        INTERBLOCK     HORIZONTAL    DATA IN
         LAYER TYPE   TRANSMISSIVITY   ANISOTROPY   ARRAY VKA   WETTABILITY
 LAYER      (LAYTYP)      (LAYAVG)       (CHANI)      (LAYVKA)      (LAYWET)
 ---------------------------------------------------------------------------
    1      CONFINED      HARMONIC     1.000E+00    ANISOTROPY  NON-WETTABLE

 WETTING CAPABILITY IS NOT ACTIVE IN ANY LAYER

 PARAMETERS DEFINED IN THE LPF PACKAGE

 PARAMETER NAME:kh000001     TYPE:HK     CLUSTERS:   1
 Parameter value from package file is:    1.0000    
                LAYER:   1    MULTIPLIER ARRAY: M1    ZONE ARRAY: khz1
                ZONE VALUES:    1

    HYD. COND. ALONG ROWS FOR LAYER   1 WILL BE DEFINED BY PARAMETERS
 (PRINT FLAG=  -1)

    HYD. COND. ALONG ROWS is defined by the following parameters:
 kh000001  


              HYD. COND. ALONG ROWS FOR LAYER   1

  HORIZ. TO VERTICAL ANI. =   1.00000     FOR LAYER   1

 WEL -- WELL PACKAGE, VERSION 7, 5/2/2005 INPUT READ FROM UNIT   12
 # MODFLOW2000 Well Package
     0 Named Parameters         0 List entries
 MAXIMUM OF      1 ACTIVE WELLS AT ONE TIME
 CELL-BY-CELL FLOWS WILL BE SAVED ON UNIT   54


     0 Well parameters

 CHD -- TIME-VARIANT SPECIFIED-HEAD OPTION, VERSION 7, 5/2/2005
 INPUT READ FROM UNIT   40
 # MODFLOW2000 Constant-Head Boundary Package (CHD)
 No named parameters
 MAXIMUM OF     80 TIME-VARIANT SPECIFIED-HEAD CELLS AT ONE TIME


     0 TIME-VARIANT SPECIFIED-HEAD PARAMETERS

 PCG -- CONJUGATE-GRADIENT SOLUTION PACKAGE, VERSION 7, 5/2/2005
 MAXIMUM OF   1000 CALLS OF SOLUTION ROUTINE
 MAXIMUM OF     40 INTERNAL ITERATIONS PER CALL TO SOLUTION ROUTINE
 MATRIX PRECONDITIONING TYPE :    1



                                    SOLUTION BY THE CONJUGATE-GRADIENT METHOD
                                   -------------------------------------------
                    MAXIMUM NUMBER OF CALLS TO PCG ROUTINE =     1000
                        MAXIMUM ITERATIONS PER CALL TO PCG =       40
                               MATRIX PRECONDITIONING TYPE =        1
        RELAXATION FACTOR (ONLY USED WITH PRECOND. TYPE 1) =    0.10000E+01
 PARAMETER OF POLYNOMIAL PRECOND. = 2 (2) OR IS CALCULATED :        2
                         HEAD CHANGE CRITERION FOR CLOSURE =    0.10000E-05
                     RESIDUAL CHANGE CRITERION FOR CLOSURE =    0.10000E-05
            PCG HEAD AND RESIDUAL CHANGE PRINTOUT INTERVAL =        5
     PRINTING FROM SOLVER IS LIMITED(1) OR SUPPRESSED (>1) =        0
                                         DAMPING PARAMETER =    0.10000E+01

 OBS2BAS7 -- HEAD OBSERVATIONS, VERSION 2.0, 2/28/2006
 INPUT READ FROM UNIT  18
 # MODFLOW2005 Observation file (HOB) Marco

 NUMBER OF HEADS....................................:   12
   NUMBER OF MULTILAYER HEADS.......................:    0
   MAXIMUM NUMBER OF LAYERS FOR MULTILAYER HEADS....:    2
 HEAD OBSERVATIONS WILL BE SAVED ON UNIT............:   14
 SIMULATED EQUIVALENT HEAD AT DRY CELLS WILL BE:    999.000    

 OBSERVED HEAD DATA -- TIME OFFSETS ARE MULTIPLIED BY:   1.0000    

                    REFER.
       OBSERVATION  STRESS    TIME
  OBS#    NAME      PERIOD   OFFSET    OBSERVATION
     1 P001T0000        1    1.000       999.0    
     2 P002T0000        1    1.000       999.0    
     3 P003T0000        1    1.000       999.0    
     4 P004T0000        1    1.000       999.0    
     5 P005T0000        1    1.000       999.0    
     6 P006T0000        1    1.000       999.0    
     7 P007T0000        1    1.000       999.0    
     8 P008T0000        1    1.000       999.0    
     9 P009T0000        1    1.000       999.0    
    10 P010T0000        1    1.000       999.0    
    11 P011T0000        1    1.000       999.0    
    12 P012T0000        1    1.000       999.0    

                                                     HEAD CHANGE
                                                      REFERENCE
        OBSERVATION                   ROW     COL    OBSERVATION
  OBS#     NAME       LAY  ROW  COL  OFFSET  OFFSET   (IF > 0)
     1  P001T0000       1    5    5   0.000   0.000        0
     2  P002T0000       1   10    5   0.000   0.000        0
     3  P003T0000       1   16    5   0.000   0.000        0
     4  P004T0000       1    7    7   0.000   0.000        0
     5  P005T0000       1   14    7   0.000   0.000        0
     6  P006T0000       1    5   10   0.000   0.000        0
     7  P007T0000       1   16   10   0.000   0.000        0
     8  P008T0000       1    7   14   0.000   0.000        0
     9  P009T0000       1   14   14   0.000   0.000        0
    10  P010T0000       1    5   16   0.000   0.000        0
    11  P011T0000       1   10   16   0.000   0.000        0
    12  P012T0000       1   16   16   0.000   0.000        0
1
                            STRESS PERIOD NO.    1, LENGTH =   1.000000    
                            -----------------------------------------------

                              NUMBER OF TIME STEPS =     1

                               MULTIPLIER FOR DELT =     1.000

                            INITIAL TIME STEP SIZE =   1.000000    

 WELL NO.  LAYER   ROW   COL   STRESS RATE         
 --------------------------------------------------
      1      1     13      6      -3.000    

      1 WELL 

 CHD NO.   LAYER   ROW   COL    START HEAD        END HEAD         
 ------------------------------------------------------------------
      1      1      1      1       35.00           35.00    
      2      1      1      2       35.00           35.00    
      3      1      1      3       35.00           35.00    
      4      1      1      4       35.00           35.00    
      5      1      1      5       35.00           35.00    
      6      1      1      6       35.00           35.00    
      7      1      1      7       35.00           35.00    
      8      1      1      8       35.00           35.00    
      9      1      1      9       35.00           35.00    
     10      1      1     10       35.00           35.00    
     11      1      1     11       35.00           35.00    
     12      1      1     12       35.00           35.00    
     13      1      1     13       35.00           35.00    
     14      1      1     14       35.00           35.00    
     15      1      1     15       35.00           35.00    
     16      1      1     16       35.00           35.00    
     17      1      1     17       35.00           35.00    
     18      1      1     18       35.00           35.00    
     19      1      1     19       35.00           35.00    
     20      1      1     20       35.00           35.00    
     21      1      1     21       35.00           35.00    
     22      1      2      1       35.00           35.00    
     23      1      2     21       35.00           35.00    
     24      1      3      1       35.00           35.00    
     25      1      3     21       35.00           35.00    
     26      1      4      1       35.00           35.00    
     27      1      4     21       35.00           35.00    
     28      1      5      1       35.00           35.00    
     29      1      5     21       35.00           35.00    
     30      1      6      1       35.00           35.00    
     31      1      6     21       35.00           35.00    
     32      1      7      1       35.00           35.00    
     33      1      7     21       35.00           35.00    
     34      1      8      1       35.00           35.00    
     35      1      8     21       35.00           35.00    
     36      1      9      1       35.00           35.00    
     37      1      9     21       35.00           35.00    
     38      1     10      1       35.00           35.00    
     39      1     10     21       35.00           35.00    
     40      1     11      1       35.00           35.00    
     41      1     11     21       35.00           35.00    
     42      1     12      1       35.00           35.00    
     43      1     12     21       35.00           35.00    
     44      1     13      1       35.00           35.00    
     45      1     13     21       35.00           35.00    
     46      1     14      1       35.00           35.00    
     47      1     14     21       35.00           35.00    
     48      1     15      1       35.00           35.00    
     49      1     15     21       35.00           35.00    
     50      1     16      1       35.00           35.00    
     51      1     16     21       35.00           35.00    
     52      1     17      1       35.00           35.00    
     53      1     17     21       35.00           35.00    
     54      1     18      1       35.00           35.00    
     55      1     18     21       35.00           35.00    
     56      1     19      1       35.00           35.00    
     57      1     19     21       35.00           35.00    
     58      1     20      1       35.00           35.00    
     59      1     20     21       35.00           35.00    
     60      1     21      1       35.00           35.00    
     61      1     21      2       35.00           35.00    
     62      1     21      3       35.00           35.00    
     63      1     21      4       35.00           35.00    
     64      1     21      5       35.00           35.00    
     65      1     21      6       35.00           35.00    
     66      1     21      7       35.00           35.00    
     67      1     21      8       35.00           35.00    
     68      1     21      9       35.00           35.00    
     69      1     21     10       35.00           35.00    
     70      1     21     11       35.00           35.00    
     71      1     21     12       35.00           35.00    
     72      1     21     13       35.00           35.00    
     73      1     21     14       35.00           35.00    
     74      1     21     15       35.00           35.00    
     75      1     21     16       35.00           35.00    
     76      1     21     17       35.00           35.00    
     77      1     21     18       35.00           35.00    
     78      1     21     19       35.00           35.00    
     79      1     21     20       35.00           35.00    
     80      1     21     21       35.00           35.00    


     80 TIME-VARIANT SPECIFIED-HEAD CELLS
 
 SOLVING FOR HEAD 


     3 CALLS TO PCG ROUTINE FOR TIME STEP   1 IN STRESS PERIOD    1
    23 TOTAL ITERATIONS

 MAXIMUM HEAD CHANGE FOR EACH ITERATION (1 INDICATES THE FIRST INNER ITERATION):

    HEAD CHANGE    HEAD CHANGE    HEAD CHANGE    HEAD CHANGE    HEAD CHANGE 
   LAYER,ROW,COL  LAYER,ROW,COL  LAYER,ROW,COL  LAYER,ROW,COL  LAYER,ROW,COL
 ---------------------------------------------------------------------------
  1  -353.3      0  -67.82      0   24.57      0  -9.432      0  -3.299    
   (  1, 13,  6)  (  1, 13,  6)  (  1, 15, 15)  (  1, 12,  7)  (  1, 14,  5)
  0   1.138      0 -0.4920      0 -0.2023      0 -0.8027E-01  0  0.2237E-01
   (  1, 10, 15)  (  1,  8, 11)  (  1, 11,  8)  (  1, 14, 17)  (  1, 17,  9)
  0 -0.1159E-01  0 -0.3114E-02  0 -0.1047E-02  0  0.4533E-03  0 -0.1061E-03
   (  1, 10,  9)  (  1, 16,  3)  (  1, 10, 17)  (  1,  8, 15)  (  1,  9, 18)
  0 -0.4274E-04  0 -0.1220E-04  0 -0.4853E-05  0 -0.1281E-05  0  0.4485E-06
   (  1,  9, 10)  (  1,  6, 12)  (  1,  8,  9)  (  1, 17, 17)  (  1, 16, 16)
  1  0.2174E-05  0  0.5427E-06  1 -0.2308E-06
   (  1, 12,  6)  (  1, 10, 10)  (  1, 14, 15)

 MAXIMUM RESIDUAL FOR EACH ITERATION (1 INDICATES THE FIRST INNER ITERATION):

    RESIDUAL       RESIDUAL       RESIDUAL       RESIDUAL       RESIDUAL    
   LAYER,ROW,COL  LAYER,ROW,COL  LAYER,ROW,COL  LAYER,ROW,COL  LAYER,ROW,COL
 ---------------------------------------------------------------------------
  1  0.9614      0  0.2575      0  0.1527      0  0.5555E-01  0  0.1176E-01
   (  1, 13,  6)  (  1, 12,  7)  (  1, 12,  7)  (  1, 14,  5)  (  1, 11,  8)
  0  0.5690E-02  0  0.2474E-02  0  0.9903E-03  0  0.2739E-03  0  0.1305E-03
   (  1, 11,  8)  (  1, 15,  4)  (  1, 15,  4)  (  1, 10,  9)  (  1, 10,  9)
  0  0.5022E-04  0  0.1201E-04  0  0.4015E-05  0  0.1257E-05  0  0.4412E-06
   (  1, 16,  3)  (  1, 16,  3)  (  1,  9, 10)  (  1, 17,  2)  (  1, 17,  2)
  0  0.1181E-06  0 -0.3594E-07  0 -0.1150E-07  0  0.4123E-08  0  0.1461E-08
   (  1, 17,  2)  (  1, 16,  2)  (  1, 18,  2)  (  1,  7, 12)  (  1, 20, 20)
  1 -0.6433E-08  0  0.2777E-08  1  0.1669E-08
   (  1, 13,  6)  (  1, 14,  6)  (  1, 14,  6)



 OUTPUT CONTROL FOR STRESS PERIOD    1   TIME STEP   1
    SAVE HEAD FOR ALL LAYERS

 HEAD WILL BE SAVED ON UNIT   30 AT END OF TIME STEP   1, STRESS PERIOD    1
1
  VOLUMETRIC BUDGET FOR ENTIRE MODEL AT END OF TIME STEP  1 IN STRESS PERIOD   1
  ------------------------------------------------------------------------------

     CUMULATIVE VOLUMES      L**3       RATES FOR THIS TIME STEP      L**3/T
     ------------------                 ------------------------

           IN:                                      IN:
           ---                                      ---
             STORAGE =           0.0000               STORAGE =           0.0000
       CONSTANT HEAD =           3.0000         CONSTANT HEAD =           3.0000
               WELLS =           0.0000                 WELLS =           0.0000

            TOTAL IN =           3.0000              TOTAL IN =           3.0000

          OUT:                                     OUT:
          ----                                     ----
             STORAGE =           0.0000               STORAGE =           0.0000
       CONSTANT HEAD =           0.0000         CONSTANT HEAD =           0.0000
               WELLS =           3.0000                 WELLS =           3.0000

           TOTAL OUT =           3.0000             TOTAL OUT =           3.0000

            IN - OUT =           0.0000              IN - OUT =           0.0000

 PERCENT DISCREPANCY =           0.00     PERCENT DISCREPANCY =           0.00






          TIME SUMMARY AT END OF TIME STEP   1 IN STRESS PERIOD    1
                    SECONDS     MINUTES      HOURS       DAYS        YEARS
                    -----------------------------------------------------------
   TIME STEP LENGTH  1.0000     1.66667E-02 2.77778E-04 1.15741E-05 3.16881E-08
 STRESS PERIOD TIME  1.0000     1.66667E-02 2.77778E-04 1.15741E-05 3.16881E-08
         TOTAL TIME  1.0000     1.66667E-02 2.77778E-04 1.15741E-05 3.16881E-08
1

 HEAD AND DRAWDOWN OBSERVATIONS
 OBSERVATION      OBSERVED      SIMULATED
   NAME             VALUE         VALUE      DIFFERENCE
 -------------------------------------------------------
 P001T0000       999.000       6.79147       992.209    
 P002T0000       999.000      -77.0031       1076.00    
 P003T0000       999.000      -69.7802       1068.78    
 P004T0000       999.000      -24.5601       1023.56    
 P005T0000       999.000      -173.419       1172.42    
 P006T0000       999.000       2.44262       996.557    
 P007T0000       999.000      -43.0234       1042.02    
 P008T0000       999.000       4.02106       994.979    
 P009T0000       999.000      -10.3652       1009.37    
 P010T0000       999.000       20.6464       978.354    
 P011T0000       999.000       6.38813       992.612    
 P012T0000       999.000       11.6169       987.383    

 SUM OF SQUARED DIFFERENCE:    1.27119E+07

 Run end date and time (yyyy/mm/dd hh:mm:ss): 2011/07/29 16:12:40
 Elapsed run time:  0.032 Seconds

