                        MODFLOW-ADJOINT Version 0.96 07/14/2007
            SENSITIVITY CALCULATIONS USING THE ADJOINT STATE METHOD FOR
      U.S. GEOLOGICAL SURVEY MODULAR FINITE-DIFFERENCE GROUND-WATER FLOW MODEL
                             VERSION 1.1 05/18/2006

 LIST FILE: S1_1_forward.lst
                         UNIT    7

 OPENING S1.bas
 FILE TYPE:BAS6   UNIT    1   STATUS:OLD    
 FORMAT:FORMATTED              ACCESS:SEQUENTIAL          

 OPENING S1_.dis
 FILE TYPE:DIS   UNIT   29   STATUS:OLD    
 FORMAT:FORMATTED              ACCESS:SEQUENTIAL          

 OPENING S1_.lpf
 FILE TYPE:LPF   UNIT   11   STATUS:OLD    
 FORMAT:FORMATTED              ACCESS:SEQUENTIAL          

 OPENING S1.zone
 FILE TYPE:ZONE   UNIT   13   STATUS:OLD    
 FORMAT:FORMATTED              ACCESS:SEQUENTIAL          

 OPENING S1_1.wel
 FILE TYPE:WEL   UNIT   12   STATUS:OLD    
 FORMAT:FORMATTED              ACCESS:SEQUENTIAL          

 OPENING S1.oc
 FILE TYPE:OC   UNIT   22   STATUS:OLD    
 FORMAT:FORMATTED              ACCESS:SEQUENTIAL          

 OPENING S1_.mul
 FILE TYPE:MULT   UNIT    8   STATUS:OLD    
 FORMAT:FORMATTED              ACCESS:SEQUENTIAL          

 OPENING S1.pcg
 FILE TYPE:PCG   UNIT   19   STATUS:OLD    
 FORMAT:FORMATTED              ACCESS:SEQUENTIAL          

 OPENING S1.chd
 FILE TYPE:CHD   UNIT   40   STATUS:OLD    
 FORMAT:FORMATTED              ACCESS:SEQUENTIAL          

 OPENING S1_1.hob
 FILE TYPE:HOB   UNIT   18   STATUS:OLD    
 FORMAT:FORMATTED              ACCESS:SEQUENTIAL          
#ADJ 35 S1_.adj                                                                                                                                                                                                                                                                                             
#DATA         44 S1_1_adj.out                                                                                                                                                                                                                                                                               
#DATA         75 S1_adj.pcg                                                                                                                                                                                                                                                                                 

 OPENING S1_1.hbs
 FILE TYPE:DATA   UNIT   14   STATUS:UNKNOWN
 FORMAT:FORMATTED              ACCESS:SEQUENTIAL          
#DATA         48 S1_1.sen                                                                                                                                                                                                                                                                                   

 OPENING S1.cbb
 FILE TYPE:DATA(BINARY)   UNIT   50   STATUS:UNKNOWN
 FORMAT:UNFORMATTED            ACCESS:SEQUENTIAL          

 OPENING S1.cbw
 FILE TYPE:DATA(BINARY)   UNIT   54   STATUS:UNKNOWN
 FORMAT:UNFORMATTED            ACCESS:SEQUENTIAL          

 OPENING S1.hds
 FILE TYPE:DATA(BINARY)   UNIT   30   STATUS:UNKNOWN
 FORMAT:UNFORMATTED            ACCESS:SEQUENTIAL          

 OPENING S1.ddn
 FILE TYPE:DATA(BINARY)   UNIT   31   STATUS:UNKNOWN
 FORMAT:UNFORMATTED            ACCESS:SEQUENTIAL          

 BAS -- BASIC PACKAGE, VERSION 7, 5/2/2005 INPUT READ FROM UNIT    1

 DISCRETIZATION INPUT DATA READ FROM UNIT   29
 # MODFLOW2000 Discretization File
    1 LAYERS        21 ROWS        21 COLUMNS
    1 STRESS PERIOD(S) IN SIMULATION
 MODEL TIME UNIT IS SECONDS
 MODEL LENGTH UNIT IS METERS
  Confining bed flag for each layer:
   0



                               DELR
 READING ON UNIT   29 WITH FORMAT: (10E12.4)           
   1.0000       1.0000       1.0000       1.0000       1.0000       1.0000       1.0000       1.0000       1.0000       1.0000    
   1.0000       1.0000       1.0000       1.0000       1.0000       1.0000       1.0000       1.0000       1.0000       1.0000    
   1.0000    



                               DELC
 READING ON UNIT   29 WITH FORMAT: (10E12.4)           
   1.0000       1.0000       1.0000       1.0000       1.0000       1.0000       1.0000       1.0000       1.0000       1.0000    
   1.0000       1.0000       1.0000       1.0000       1.0000       1.0000       1.0000       1.0000       1.0000       1.0000    
   1.0000    

 TOP ELEVATION OF LAYER 1 =   20.0000    

   MODEL LAYER BOTTOM EL. =   0.00000     FOR LAYER   1


 STRESS PERIOD     LENGTH       TIME STEPS     MULTIPLIER FOR DELT    SS FLAG
 ----------------------------------------------------------------------------
        1         1.000000          1                    1.000         SS

 STEADY-STATE SIMULATION



 
 # MODFLOW2005 Basic Package                                                     



                     BOUNDARY ARRAY FOR LAYER   1
 READING ON UNIT    1 WITH FORMAT: (FREE)              

 AQUIFER HEAD WILL BE SET TO  999.00     AT ALL NO-FLOW NODES (IBOUND=0).



                       INITIAL HEAD FOR LAYER   1
 READING ON UNIT    1 WITH FORMAT: (FREE)              

 OUTPUT CONTROL IS SPECIFIED ONLY AT TIME STEPS FOR WHICH OUTPUT IS DESIRED
 HEAD PRINT FORMAT CODE IS   0    DRAWDOWN PRINT FORMAT CODE IS   0
 HEADS WILL BE SAVED ON UNIT   30    DRAWDOWNS WILL BE SAVED ON UNIT   31

 ZONE OPTION, INPUT READ FROM UNIT   13
 # MODFLOW2000 Zone File
     1 ZONE ARRAYS

 MULTIPLIER OPTION, INPUT READ FROM UNIT    8
 # MODFLOW2005 multiplier Package Parent MD
   1 MULTIPLIER ARRAYS



            MULT. ARRAY: M1        
 READING ON UNIT    8 WITH FORMAT: (FREE)              

            1           2           3           4           5           6           7           8           9          10
           11          12          13          14          15          16          17          18          19          20
           21
 ........................................................................................................................
   1   3.2777E-03  3.2777E-03  3.2773E-03  3.2765E-03  3.2754E-03  3.2748E-03  3.2741E-03  3.2700E-03  3.2616E-03  3.2506E-03
       3.2383E-03  3.2256E-03  3.2128E-03  3.1997E-03  3.1873E-03  3.1760E-03  3.1669E-03  3.1604E-03  3.1560E-03  3.1533E-03
       3.1520E-03
   2   3.2791E-03  3.2791E-03  3.2787E-03  3.2780E-03  3.2768E-03  3.2762E-03  3.2756E-03  3.2714E-03  3.2630E-03  3.2518E-03
       3.2394E-03  3.2267E-03  3.2138E-03  3.2006E-03  3.1880E-03  3.1767E-03  3.1675E-03  3.1609E-03  3.1565E-03  3.1537E-03
       3.1525E-03
   3   3.2816E-03  3.2816E-03  3.2813E-03  3.2806E-03  3.2794E-03  3.2788E-03  3.2782E-03  3.2740E-03  3.2656E-03  3.2543E-03
       3.2418E-03  3.2290E-03  3.2159E-03  3.2026E-03  3.1899E-03  3.1785E-03  3.1691E-03  3.1625E-03  3.1580E-03  3.1552E-03
       3.1540E-03
   4   3.2853E-03  3.2853E-03  3.2850E-03  3.2843E-03  3.2832E-03  3.2827E-03  3.2821E-03  3.2779E-03  3.2694E-03  3.2581E-03
       3.2455E-03  3.2325E-03  3.2193E-03  3.2058E-03  3.1930E-03  3.1814E-03  3.1720E-03  3.1652E-03  3.1607E-03  3.1579E-03
       3.1566E-03
   5   3.2902E-03  3.2902E-03  3.2900E-03  3.2894E-03  3.2884E-03  3.2879E-03  3.2873E-03  3.2832E-03  3.2746E-03  3.2633E-03
       3.2506E-03  3.2375E-03  3.2241E-03  3.2104E-03  3.1974E-03  3.1857E-03  3.1761E-03  3.1692E-03  3.1646E-03  3.1617E-03
       3.1604E-03
   6   3.2961E-03  3.2963E-03  3.2961E-03  3.2956E-03  3.2946E-03  3.2942E-03  3.2938E-03  3.2896E-03  3.2811E-03  3.2696E-03
       3.2568E-03  3.2436E-03  3.2300E-03  3.2162E-03  3.2030E-03  3.1911E-03  3.1813E-03  3.1743E-03  3.1695E-03  3.1666E-03
       3.1653E-03
   7   3.3029E-03  3.3031E-03  3.3031E-03  3.3026E-03  3.3018E-03  3.3014E-03  3.3011E-03  3.2970E-03  3.2884E-03  3.2769E-03
       3.2639E-03  3.2506E-03  3.2368E-03  3.2228E-03  3.2094E-03  3.1973E-03  3.1873E-03  3.1802E-03  3.1753E-03  3.1723E-03
       3.1709E-03
   8   3.3100E-03  3.3104E-03  3.3104E-03  3.3101E-03  3.3093E-03  3.3091E-03  3.3088E-03  3.3048E-03  3.2962E-03  3.2846E-03
       3.2715E-03  3.2580E-03  3.2441E-03  3.2298E-03  3.2162E-03  3.2039E-03  3.1938E-03  3.1865E-03  3.1816E-03  3.1785E-03
       3.1771E-03
   9   3.3170E-03  3.3174E-03  3.3176E-03  3.3174E-03  3.3167E-03  3.3166E-03  3.3164E-03  3.3124E-03  3.3038E-03  3.2921E-03
       3.2789E-03  3.2652E-03  3.2511E-03  3.2367E-03  3.2229E-03  3.2104E-03  3.2001E-03  3.1927E-03  3.1877E-03  3.1845E-03
       3.1830E-03
  10   3.3231E-03  3.3236E-03  3.3238E-03  3.3237E-03  3.3230E-03  3.3231E-03  3.3231E-03  3.3192E-03  3.3105E-03  3.2987E-03
       3.2854E-03  3.2715E-03  3.2573E-03  3.2427E-03  3.2287E-03  3.2161E-03  3.2056E-03  3.1982E-03  3.1930E-03  3.1898E-03
       3.1883E-03
  11   3.3280E-03  3.3286E-03  3.3288E-03  3.3288E-03  3.3282E-03  3.3285E-03  3.3286E-03  3.3248E-03  3.3161E-03  3.3042E-03
       3.2907E-03  3.2767E-03  3.2623E-03  3.2476E-03  3.2335E-03  3.2207E-03  3.2102E-03  3.2027E-03  3.1975E-03  3.1942E-03
       3.1927E-03
  12   3.3320E-03  3.3326E-03  3.3329E-03  3.3329E-03  3.3325E-03  3.3328E-03  3.3331E-03  3.3293E-03  3.3205E-03  3.3085E-03
       3.2949E-03  3.2808E-03  3.2663E-03  3.2514E-03  3.2373E-03  3.2245E-03  3.2139E-03  3.2063E-03  3.2011E-03  3.1978E-03
       3.1963E-03
  13   3.3332E-03  3.3339E-03  3.3342E-03  3.3343E-03  3.3339E-03  3.3343E-03  3.3346E-03  3.3308E-03  3.3220E-03  3.3099E-03
       3.2962E-03  3.2820E-03  3.2675E-03  3.2526E-03  3.2384E-03  3.2256E-03  3.2151E-03  3.2075E-03  3.2023E-03  3.1990E-03
       3.1975E-03
  14   3.3312E-03  3.3318E-03  3.3322E-03  3.3322E-03  3.3319E-03  3.3322E-03  3.3325E-03  3.3287E-03  3.3198E-03  3.3076E-03
       3.2939E-03  3.2798E-03  3.2653E-03  3.2505E-03  3.2364E-03  3.2236E-03  3.2132E-03  3.2057E-03  3.2005E-03  3.1973E-03
       3.1957E-03
  15   3.3258E-03  3.3264E-03  3.3267E-03  3.3267E-03  3.3263E-03  3.3265E-03  3.3266E-03  3.3226E-03  3.3137E-03  3.3016E-03
       3.2880E-03  3.2739E-03  3.2596E-03  3.2450E-03  3.2310E-03  3.2185E-03  3.2081E-03  3.2007E-03  3.1957E-03  3.1925E-03
       3.1910E-03
  16   3.3171E-03  3.3175E-03  3.3177E-03  3.3176E-03  3.3170E-03  3.3171E-03  3.3170E-03  3.3129E-03  3.3040E-03  3.2920E-03
       3.2785E-03  3.2647E-03  3.2505E-03  3.2361E-03  3.2225E-03  3.2101E-03  3.1999E-03  3.1927E-03  3.1877E-03  3.1847E-03
       3.1832E-03
  17   3.3078E-03  3.3081E-03  3.3082E-03  3.3079E-03  3.3072E-03  3.3071E-03  3.3068E-03  3.3026E-03  3.2937E-03  3.2818E-03
       3.2685E-03  3.2549E-03  3.2410E-03  3.2269E-03  3.2135E-03  3.2013E-03  3.1914E-03  3.1843E-03  3.1795E-03  3.1765E-03
       3.1751E-03
  18   3.3001E-03  3.3003E-03  3.3003E-03  3.2999E-03  3.2990E-03  3.2987E-03  3.2983E-03  3.2940E-03  3.2852E-03  3.2734E-03
       3.2603E-03  3.2469E-03  3.2333E-03  3.2194E-03  3.2062E-03  3.1942E-03  3.1845E-03  3.1776E-03  3.1729E-03  3.1700E-03
       3.1687E-03
  19   3.2943E-03  3.2945E-03  3.2943E-03  3.2938E-03  3.2929E-03  3.2924E-03  3.2919E-03  3.2876E-03  3.2788E-03  3.2672E-03
       3.2543E-03  3.2410E-03  3.2276E-03  3.2139E-03  3.2009E-03  3.1892E-03  3.1796E-03  3.1728E-03  3.1682E-03  3.1654E-03
       3.1641E-03
  20   3.2905E-03  3.2906E-03  3.2904E-03  3.2898E-03  3.2888E-03  3.2882E-03  3.2877E-03  3.2834E-03  3.2747E-03  3.2632E-03
       3.2504E-03  3.2373E-03  3.2240E-03  3.2105E-03  3.1977E-03  3.1861E-03  3.1767E-03  3.1700E-03  3.1654E-03  3.1626E-03
       3.1614E-03
  21   3.2886E-03  3.2886E-03  3.2884E-03  3.2878E-03  3.2867E-03  3.2861E-03  3.2855E-03  3.2813E-03  3.2727E-03  3.2613E-03
       3.2486E-03  3.2357E-03  3.2225E-03  3.2091E-03  3.1965E-03  3.1850E-03  3.1757E-03  3.1690E-03  3.1645E-03  3.1617E-03
       3.1605E-03



             ZONE ARRAY: khz1      
 READING ON UNIT   13 WITH FORMAT: (FREE)              

 LPF -- LAYER-PROPERTY FLOW PACKAGE, VERSION 7, 5/2/2005
         INPUT READ FROM UNIT   11
 # MODFLOW2005 Layer Property Flow (LPF) Package Parent MD
 CELL-BY-CELL FLOWS WILL BE SAVED ON UNIT   50
 HEAD AT CELLS THAT CONVERT TO DRY=   999.00    
     1 Named Parameters     

   LAYER FLAGS:
 LAYER       LAYTYP        LAYAVG         CHANI        LAYVKA        LAYWET
 ---------------------------------------------------------------------------
    1             0             0     1.000E+00             1             0

   INTERPRETATION OF LAYER FLAGS:
                        INTERBLOCK     HORIZONTAL    DATA IN
         LAYER TYPE   TRANSMISSIVITY   ANISOTROPY   ARRAY VKA   WETTABILITY
 LAYER      (LAYTYP)      (LAYAVG)       (CHANI)      (LAYVKA)      (LAYWET)
 ---------------------------------------------------------------------------
    1      CONFINED      HARMONIC     1.000E+00    ANISOTROPY  NON-WETTABLE

 WETTING CAPABILITY IS NOT ACTIVE IN ANY LAYER

 PARAMETERS DEFINED IN THE LPF PACKAGE

 PARAMETER NAME:kh000001     TYPE:HK     CLUSTERS:   1
 Parameter value from package file is:    1.0000    
                LAYER:   1    MULTIPLIER ARRAY: M1    ZONE ARRAY: khz1
                ZONE VALUES:    1

    HYD. COND. ALONG ROWS FOR LAYER   1 WILL BE DEFINED BY PARAMETERS
 (PRINT FLAG=  -1)

    HYD. COND. ALONG ROWS is defined by the following parameters:
 kh000001  


              HYD. COND. ALONG ROWS FOR LAYER   1

  HORIZ. TO VERTICAL ANI. =   1.00000     FOR LAYER   1

 WEL -- WELL PACKAGE, VERSION 7, 5/2/2005 INPUT READ FROM UNIT   12
 # MODFLOW2000 Well Package
     0 Named Parameters         0 List entries
 MAXIMUM OF      1 ACTIVE WELLS AT ONE TIME
 CELL-BY-CELL FLOWS WILL BE SAVED ON UNIT   54


     0 Well parameters

 CHD -- TIME-VARIANT SPECIFIED-HEAD OPTION, VERSION 7, 5/2/2005
 INPUT READ FROM UNIT   40
 # MODFLOW2000 Constant-Head Boundary Package (CHD)
 No named parameters
 MAXIMUM OF     80 TIME-VARIANT SPECIFIED-HEAD CELLS AT ONE TIME


     0 TIME-VARIANT SPECIFIED-HEAD PARAMETERS

 PCG -- CONJUGATE-GRADIENT SOLUTION PACKAGE, VERSION 7, 5/2/2005
 MAXIMUM OF   1000 CALLS OF SOLUTION ROUTINE
 MAXIMUM OF     40 INTERNAL ITERATIONS PER CALL TO SOLUTION ROUTINE
 MATRIX PRECONDITIONING TYPE :    1



                                    SOLUTION BY THE CONJUGATE-GRADIENT METHOD
                                   -------------------------------------------
                    MAXIMUM NUMBER OF CALLS TO PCG ROUTINE =     1000
                        MAXIMUM ITERATIONS PER CALL TO PCG =       40
                               MATRIX PRECONDITIONING TYPE =        1
        RELAXATION FACTOR (ONLY USED WITH PRECOND. TYPE 1) =    0.10000E+01
 PARAMETER OF POLYNOMIAL PRECOND. = 2 (2) OR IS CALCULATED :        2
                         HEAD CHANGE CRITERION FOR CLOSURE =    0.10000E-05
                     RESIDUAL CHANGE CRITERION FOR CLOSURE =    0.10000E-05
            PCG HEAD AND RESIDUAL CHANGE PRINTOUT INTERVAL =        5
     PRINTING FROM SOLVER IS LIMITED(1) OR SUPPRESSED (>1) =        0
                                         DAMPING PARAMETER =    0.10000E+01

 OBS2BAS7 -- HEAD OBSERVATIONS, VERSION 2.0, 2/28/2006
 INPUT READ FROM UNIT  18
 # MODFLOW2005 Observation file (HOB) Marco

 NUMBER OF HEADS....................................:   12
   NUMBER OF MULTILAYER HEADS.......................:    0
   MAXIMUM NUMBER OF LAYERS FOR MULTILAYER HEADS....:    2
 HEAD OBSERVATIONS WILL BE SAVED ON UNIT............:   14
 SIMULATED EQUIVALENT HEAD AT DRY CELLS WILL BE:    999.000    

 OBSERVED HEAD DATA -- TIME OFFSETS ARE MULTIPLIED BY:   1.0000    

                    REFER.
       OBSERVATION  STRESS    TIME
  OBS#    NAME      PERIOD   OFFSET    OBSERVATION
     1 P001T0000        1    1.000       999.0    
     2 P002T0000        1    1.000       999.0    
     3 P003T0000        1    1.000       999.0    
     4 P004T0000        1    1.000       999.0    
     5 P005T0000        1    1.000       999.0    
     6 P006T0000        1    1.000       999.0    
     7 P007T0000        1    1.000       999.0    
     8 P008T0000        1    1.000       999.0    
     9 P009T0000        1    1.000       999.0    
    10 P010T0000        1    1.000       999.0    
    11 P011T0000        1    1.000       999.0    
    12 P012T0000        1    1.000       999.0    

                                                     HEAD CHANGE
                                                      REFERENCE
        OBSERVATION                   ROW     COL    OBSERVATION
  OBS#     NAME       LAY  ROW  COL  OFFSET  OFFSET   (IF > 0)
     1  P001T0000       1    5    5   0.000   0.000        0
     2  P002T0000       1   10    5   0.000   0.000        0
     3  P003T0000       1   16    5   0.000   0.000        0
     4  P004T0000       1    7    7   0.000   0.000        0
     5  P005T0000       1   14    7   0.000   0.000        0
     6  P006T0000       1    5   10   0.000   0.000        0
     7  P007T0000       1   16   10   0.000   0.000        0
     8  P008T0000       1    7   14   0.000   0.000        0
     9  P009T0000       1   14   14   0.000   0.000        0
    10  P010T0000       1    5   16   0.000   0.000        0
    11  P011T0000       1   10   16   0.000   0.000        0
    12  P012T0000       1   16   16   0.000   0.000        0
1
                            STRESS PERIOD NO.    1, LENGTH =   1.000000    
                            -----------------------------------------------

                              NUMBER OF TIME STEPS =     1

                               MULTIPLIER FOR DELT =     1.000

                            INITIAL TIME STEP SIZE =   1.000000    

 WELL NO.  LAYER   ROW   COL   STRESS RATE         
 --------------------------------------------------
      1      1     13      6      -3.000    

      1 WELL 

 CHD NO.   LAYER   ROW   COL    START HEAD        END HEAD         
 ------------------------------------------------------------------
      1      1      1      1       35.00           35.00    
      2      1      1      2       35.00           35.00    
      3      1      1      3       35.00           35.00    
      4      1      1      4       35.00           35.00    
      5      1      1      5       35.00           35.00    
      6      1      1      6       35.00           35.00    
      7      1      1      7       35.00           35.00    
      8      1      1      8       35.00           35.00    
      9      1      1      9       35.00           35.00    
     10      1      1     10       35.00           35.00    
     11      1      1     11       35.00           35.00    
     12      1      1     12       35.00           35.00    
     13      1      1     13       35.00           35.00    
     14      1      1     14       35.00           35.00    
     15      1      1     15       35.00           35.00    
     16      1      1     16       35.00           35.00    
     17      1      1     17       35.00           35.00    
     18      1      1     18       35.00           35.00    
     19      1      1     19       35.00           35.00    
     20      1      1     20       35.00           35.00    
     21      1      1     21       35.00           35.00    
     22      1      2      1       35.00           35.00    
     23      1      2     21       35.00           35.00    
     24      1      3      1       35.00           35.00    
     25      1      3     21       35.00           35.00    
     26      1      4      1       35.00           35.00    
     27      1      4     21       35.00           35.00    
     28      1      5      1       35.00           35.00    
     29      1      5     21       35.00           35.00    
     30      1      6      1       35.00           35.00    
     31      1      6     21       35.00           35.00    
     32      1      7      1       35.00           35.00    
     33      1      7     21       35.00           35.00    
     34      1      8      1       35.00           35.00    
     35      1      8     21       35.00           35.00    
     36      1      9      1       35.00           35.00    
     37      1      9     21       35.00           35.00    
     38      1     10      1       35.00           35.00    
     39      1     10     21       35.00           35.00    
     40      1     11      1       35.00           35.00    
     41      1     11     21       35.00           35.00    
     42      1     12      1       35.00           35.00    
     43      1     12     21       35.00           35.00    
     44      1     13      1       35.00           35.00    
     45      1     13     21       35.00           35.00    
     46      1     14      1       35.00           35.00    
     47      1     14     21       35.00           35.00    
     48      1     15      1       35.00           35.00    
     49      1     15     21       35.00           35.00    
     50      1     16      1       35.00           35.00    
     51      1     16     21       35.00           35.00    
     52      1     17      1       35.00           35.00    
     53      1     17     21       35.00           35.00    
     54      1     18      1       35.00           35.00    
     55      1     18     21       35.00           35.00    
     56      1     19      1       35.00           35.00    
     57      1     19     21       35.00           35.00    
     58      1     20      1       35.00           35.00    
     59      1     20     21       35.00           35.00    
     60      1     21      1       35.00           35.00    
     61      1     21      2       35.00           35.00    
     62      1     21      3       35.00           35.00    
     63      1     21      4       35.00           35.00    
     64      1     21      5       35.00           35.00    
     65      1     21      6       35.00           35.00    
     66      1     21      7       35.00           35.00    
     67      1     21      8       35.00           35.00    
     68      1     21      9       35.00           35.00    
     69      1     21     10       35.00           35.00    
     70      1     21     11       35.00           35.00    
     71      1     21     12       35.00           35.00    
     72      1     21     13       35.00           35.00    
     73      1     21     14       35.00           35.00    
     74      1     21     15       35.00           35.00    
     75      1     21     16       35.00           35.00    
     76      1     21     17       35.00           35.00    
     77      1     21     18       35.00           35.00    
     78      1     21     19       35.00           35.00    
     79      1     21     20       35.00           35.00    
     80      1     21     21       35.00           35.00    


     80 TIME-VARIANT SPECIFIED-HEAD CELLS
 
 SOLVING FOR HEAD 


     2 CALLS TO PCG ROUTINE FOR TIME STEP   1 IN STRESS PERIOD    1
    18 TOTAL ITERATIONS

 MAXIMUM HEAD CHANGE FOR EACH ITERATION (1 INDICATES THE FIRST INNER ITERATION):

    HEAD CHANGE    HEAD CHANGE    HEAD CHANGE    HEAD CHANGE    HEAD CHANGE 
   LAYER,ROW,COL  LAYER,ROW,COL  LAYER,ROW,COL  LAYER,ROW,COL  LAYER,ROW,COL
 ---------------------------------------------------------------------------
  1  -21.33      0  -4.121      0   1.513      0 -0.5756      0 -0.2014    
   (  1, 13,  6)  (  1, 13,  6)  (  1, 15, 15)  (  1, 12,  7)  (  1, 14,  5)
  0  0.7050E-01  0 -0.3035E-01  0 -0.1264E-01  0 -0.5031E-02  0  0.1380E-02
   (  1, 10, 15)  (  1,  8, 11)  (  1, 11,  8)  (  1, 16, 18)  (  1, 17,  9)
  0 -0.7083E-03  0 -0.1906E-03  0 -0.6519E-04  0  0.2805E-04  0 -0.6589E-05
   (  1, 10,  9)  (  1, 16,  3)  (  1, 10, 17)  (  1,  8, 15)  (  1,  9, 18)
  0 -0.2650E-05  0 -0.7458E-06  1 -0.2968E-06
   (  1,  9, 10)  (  1,  6, 12)  (  1,  8,  9)

 MAXIMUM RESIDUAL FOR EACH ITERATION (1 INDICATES THE FIRST INNER ITERATION):

    RESIDUAL       RESIDUAL       RESIDUAL       RESIDUAL       RESIDUAL    
   LAYER,ROW,COL  LAYER,ROW,COL  LAYER,ROW,COL  LAYER,ROW,COL  LAYER,ROW,COL
 ---------------------------------------------------------------------------
  1  0.9654      0  0.2580      0  0.1535      0  0.5592E-01  0  0.1179E-01
   (  1, 13,  6)  (  1, 12,  7)  (  1, 12,  7)  (  1, 14,  5)  (  1, 11,  8)
  0  0.5714E-02  0  0.2523E-02  0  0.1017E-02  0  0.2745E-03  0  0.1316E-03
   (  1, 11,  8)  (  1, 15,  4)  (  1, 15,  4)  (  1, 10,  9)  (  1, 10,  9)
  0  0.5073E-04  0  0.1217E-04  0  0.4071E-05  0  0.1264E-05  0  0.4452E-06
   (  1, 16,  3)  (  1, 16,  3)  (  1,  9, 10)  (  1, 17,  2)  (  1, 17,  2)
  0  0.1196E-06  0 -0.3639E-07  1  0.2271E-07
   (  1, 17,  2)  (  1, 16,  2)  (  1, 17,  2)



 OUTPUT CONTROL FOR STRESS PERIOD    1   TIME STEP   1
    SAVE HEAD FOR ALL LAYERS

 HEAD WILL BE SAVED ON UNIT   30 AT END OF TIME STEP   1, STRESS PERIOD    1
1
  VOLUMETRIC BUDGET FOR ENTIRE MODEL AT END OF TIME STEP  1 IN STRESS PERIOD   1
  ------------------------------------------------------------------------------

     CUMULATIVE VOLUMES      L**3       RATES FOR THIS TIME STEP      L**3/T
     ------------------                 ------------------------

           IN:                                      IN:
           ---                                      ---
             STORAGE =           0.0000               STORAGE =           0.0000
       CONSTANT HEAD =           3.0000         CONSTANT HEAD =           3.0000
               WELLS =           0.0000                 WELLS =           0.0000

            TOTAL IN =           3.0000              TOTAL IN =           3.0000

          OUT:                                     OUT:
          ----                                     ----
             STORAGE =           0.0000               STORAGE =           0.0000
       CONSTANT HEAD =           0.0000         CONSTANT HEAD =           0.0000
               WELLS =           3.0000                 WELLS =           3.0000

           TOTAL OUT =           3.0000             TOTAL OUT =           3.0000

            IN - OUT =           0.0000              IN - OUT =           0.0000

 PERCENT DISCREPANCY =           0.00     PERCENT DISCREPANCY =           0.00






          TIME SUMMARY AT END OF TIME STEP   1 IN STRESS PERIOD    1
                    SECONDS     MINUTES      HOURS       DAYS        YEARS
                    -----------------------------------------------------------
   TIME STEP LENGTH  1.0000     1.66667E-02 2.77778E-04 1.15741E-05 3.16881E-08
 STRESS PERIOD TIME  1.0000     1.66667E-02 2.77778E-04 1.15741E-05 3.16881E-08
         TOTAL TIME  1.0000     1.66667E-02 2.77778E-04 1.15741E-05 3.16881E-08
1

 HEAD AND DRAWDOWN OBSERVATIONS
 OBSERVATION      OBSERVED      SIMULATED
   NAME             VALUE         VALUE      DIFFERENCE
 -------------------------------------------------------
 P001T0000       999.000       33.2712       965.729    
 P002T0000       999.000       28.1882       970.812    
 P003T0000       999.000       28.6248       970.375    
 P004T0000       999.000       31.3533       967.647    
 P005T0000       999.000       22.3458       976.654    
 P006T0000       999.000       32.9934       966.007    
 P007T0000       999.000       30.2148       968.785    
 P008T0000       999.000       33.0801       965.920    
 P009T0000       999.000       32.1952       966.805    
 P010T0000       999.000       34.1075       964.893    
 P011T0000       999.000       33.2245       965.775    
 P012T0000       999.000       33.5486       965.451    

 SUM OF SQUARED DIFFERENCE:    1.12422E+07

 Run end date and time (yyyy/mm/dd hh:mm:ss): 2011/10/25 16:45:41
 Elapsed run time:  0.016 Seconds

