                        MODFLOW-ADJOINT Version 0.96 07/14/2007
            SENSITIVITY CALCULATIONS USING THE ADJOINT STATE METHOD FOR
      U.S. GEOLOGICAL SURVEY MODULAR FINITE-DIFFERENCE GROUND-WATER FLOW MODEL
                             VERSION 1.1 05/18/2006

 LIST FILE: S1_1_adj.lst
                         UNIT    7

 OPENING S1.bas
 FILE TYPE:BAS6   UNIT    1   STATUS:OLD    
 FORMAT:FORMATTED              ACCESS:SEQUENTIAL          

 OPENING S1_.dis
 FILE TYPE:DIS   UNIT   29   STATUS:OLD    
 FORMAT:FORMATTED              ACCESS:SEQUENTIAL          

 OPENING S1_.lpf
 FILE TYPE:LPF   UNIT   11   STATUS:OLD    
 FORMAT:FORMATTED              ACCESS:SEQUENTIAL          

 OPENING S1.zone
 FILE TYPE:ZONE   UNIT   13   STATUS:OLD    
 FORMAT:FORMATTED              ACCESS:SEQUENTIAL          

 OPENING S1_1.wel
 FILE TYPE:WEL   UNIT   12   STATUS:OLD    
 FORMAT:FORMATTED              ACCESS:SEQUENTIAL          

 OPENING S1.oc
 FILE TYPE:OC   UNIT   22   STATUS:OLD    
 FORMAT:FORMATTED              ACCESS:SEQUENTIAL          

 OPENING S1_.mul
 FILE TYPE:MULT   UNIT    8   STATUS:OLD    
 FORMAT:FORMATTED              ACCESS:SEQUENTIAL          

 OPENING S1.pcg
 FILE TYPE:PCG   UNIT   19   STATUS:OLD    
 FORMAT:FORMATTED              ACCESS:SEQUENTIAL          

 OPENING S1.chd
 FILE TYPE:CHD   UNIT   40   STATUS:OLD    
 FORMAT:FORMATTED              ACCESS:SEQUENTIAL          

 OPENING S1_1.hob
 FILE TYPE:HOB   UNIT   18   STATUS:OLD    
 FORMAT:FORMATTED              ACCESS:SEQUENTIAL          

 OPENING S1_.adj
 FILE TYPE:ADJ   UNIT   35   STATUS:OLD    
 FORMAT:FORMATTED              ACCESS:SEQUENTIAL          

 OPENING S1_1_adj.out
 FILE TYPE:DATA   UNIT   44   STATUS:UNKNOWN
 FORMAT:FORMATTED              ACCESS:SEQUENTIAL          

 OPENING S1_adj.pcg
 FILE TYPE:DATA   UNIT   75   STATUS:UNKNOWN
 FORMAT:FORMATTED              ACCESS:SEQUENTIAL          

 OPENING S1_1.hbs
 FILE TYPE:DATA   UNIT   14   STATUS:UNKNOWN
 FORMAT:FORMATTED              ACCESS:SEQUENTIAL          

 OPENING S1_1.sen
 FILE TYPE:DATA   UNIT   48   STATUS:UNKNOWN
 FORMAT:FORMATTED              ACCESS:SEQUENTIAL          

 OPENING S1.cbb
 FILE TYPE:DATA(BINARY)   UNIT   50   STATUS:UNKNOWN
 FORMAT:UNFORMATTED            ACCESS:SEQUENTIAL          

 OPENING S1.cbw
 FILE TYPE:DATA(BINARY)   UNIT   54   STATUS:UNKNOWN
 FORMAT:UNFORMATTED            ACCESS:SEQUENTIAL          

 OPENING S1.hds
 FILE TYPE:DATA(BINARY)   UNIT   30   STATUS:UNKNOWN
 FORMAT:UNFORMATTED            ACCESS:SEQUENTIAL          

 OPENING S1.ddn
 FILE TYPE:DATA(BINARY)   UNIT   31   STATUS:UNKNOWN
 FORMAT:UNFORMATTED            ACCESS:SEQUENTIAL          

 BAS -- BASIC PACKAGE, VERSION 7, 5/2/2005 INPUT READ FROM UNIT    1

 DISCRETIZATION INPUT DATA READ FROM UNIT   29
 # MODFLOW2000 Discretization File
    1 LAYERS        21 ROWS        21 COLUMNS
    1 STRESS PERIOD(S) IN SIMULATION
 MODEL TIME UNIT IS SECONDS
 MODEL LENGTH UNIT IS METERS
  Confining bed flag for each layer:
   0



                               DELR
 READING ON UNIT   29 WITH FORMAT: (10E12.4)           
   1.0000       1.0000       1.0000       1.0000       1.0000       1.0000       1.0000       1.0000       1.0000       1.0000    
   1.0000       1.0000       1.0000       1.0000       1.0000       1.0000       1.0000       1.0000       1.0000       1.0000    
   1.0000    



                               DELC
 READING ON UNIT   29 WITH FORMAT: (10E12.4)           
   1.0000       1.0000       1.0000       1.0000       1.0000       1.0000       1.0000       1.0000       1.0000       1.0000    
   1.0000       1.0000       1.0000       1.0000       1.0000       1.0000       1.0000       1.0000       1.0000       1.0000    
   1.0000    

 TOP ELEVATION OF LAYER 1 =   20.0000    

   MODEL LAYER BOTTOM EL. =   0.00000     FOR LAYER   1


 STRESS PERIOD     LENGTH       TIME STEPS     MULTIPLIER FOR DELT    SS FLAG
 ----------------------------------------------------------------------------
        1         1.000000          1                    1.000         SS

 STEADY-STATE SIMULATION



 
 # MODFLOW2005 Basic Package                                                     



                     BOUNDARY ARRAY FOR LAYER   1
 READING ON UNIT    1 WITH FORMAT: (FREE)              

 AQUIFER HEAD WILL BE SET TO  999.00     AT ALL NO-FLOW NODES (IBOUND=0).



                       INITIAL HEAD FOR LAYER   1
 READING ON UNIT    1 WITH FORMAT: (FREE)              

 OUTPUT CONTROL IS SPECIFIED ONLY AT TIME STEPS FOR WHICH OUTPUT IS DESIRED
 HEAD PRINT FORMAT CODE IS   0    DRAWDOWN PRINT FORMAT CODE IS   0
 HEADS WILL BE SAVED ON UNIT   30    DRAWDOWNS WILL BE SAVED ON UNIT   31

 ZONE OPTION, INPUT READ FROM UNIT   13
 # MODFLOW2000 Zone File
     1 ZONE ARRAYS

 MULTIPLIER OPTION, INPUT READ FROM UNIT    8
 # MODFLOW2005 multiplier Package Parent MD
   1 MULTIPLIER ARRAYS



            MULT. ARRAY: M1        
 READING ON UNIT    8 WITH FORMAT: (FREE)              

            1           2           3           4           5           6           7           8           9          10
           11          12          13          14          15          16          17          18          19          20
           21
 ........................................................................................................................
   1   2.0109E-04  2.0109E-04  2.0108E-04  2.0108E-04  2.0106E-04  2.0105E-04  2.0103E-04  2.0101E-04  2.0099E-04  2.0096E-04
       2.0093E-04  2.0088E-04  2.0083E-04  2.0077E-04  2.0071E-04  2.0066E-04  2.0062E-04  2.0058E-04  2.0056E-04  2.0053E-04
       2.0052E-04
   2   2.0110E-04  2.0110E-04  2.0109E-04  2.0108E-04  2.0107E-04  2.0106E-04  2.0104E-04  2.0103E-04  2.0101E-04  2.0099E-04
       2.0096E-04  2.0092E-04  2.0086E-04  2.0080E-04  2.0074E-04  2.0068E-04  2.0063E-04  2.0059E-04  2.0056E-04  2.0054E-04
       2.0052E-04
   3   2.0111E-04  2.0111E-04  2.0110E-04  2.0109E-04  2.0107E-04  2.0105E-04  2.0104E-04  2.0103E-04  2.0103E-04  2.0102E-04
       2.0100E-04  2.0096E-04  2.0092E-04  2.0086E-04  2.0079E-04  2.0072E-04  2.0066E-04  2.0061E-04  2.0058E-04  2.0055E-04
       2.0053E-04
   4   2.0111E-04  2.0111E-04  2.0110E-04  2.0108E-04  2.0106E-04  2.0104E-04  2.0102E-04  2.0102E-04  2.0103E-04  2.0104E-04
       2.0104E-04  2.0102E-04  2.0099E-04  2.0094E-04  2.0087E-04  2.0078E-04  2.0071E-04  2.0065E-04  2.0060E-04  2.0057E-04
       2.0054E-04
   5   2.0111E-04  2.0110E-04  2.0109E-04  2.0106E-04  2.0103E-04  2.0101E-04  2.0100E-04  2.0101E-04  2.0102E-04  2.0105E-04
       2.0106E-04  2.0107E-04  2.0106E-04  2.0103E-04  2.0097E-04  2.0088E-04  2.0078E-04  2.0071E-04  2.0065E-04  2.0060E-04
       2.0057E-04
   6   2.0111E-04  2.0110E-04  2.0108E-04  2.0105E-04  2.0101E-04  2.0100E-04  2.0099E-04  2.0100E-04  2.0102E-04  2.0105E-04
       2.0108E-04  2.0111E-04  2.0111E-04  2.0110E-04  2.0105E-04  2.0097E-04  2.0087E-04  2.0077E-04  2.0070E-04  2.0064E-04
       2.0059E-04
   7   2.0111E-04  2.0109E-04  2.0107E-04  2.0104E-04  2.0102E-04  2.0101E-04  2.0101E-04  2.0102E-04  2.0104E-04  2.0107E-04
       2.0110E-04  2.0113E-04  2.0115E-04  2.0114E-04  2.0111E-04  2.0103E-04  2.0093E-04  2.0084E-04  2.0075E-04  2.0068E-04
       2.0062E-04
   8   2.0110E-04  2.0109E-04  2.0107E-04  2.0105E-04  2.0104E-04  2.0104E-04  2.0105E-04  2.0106E-04  2.0106E-04  2.0109E-04
       2.0112E-04  2.0115E-04  2.0117E-04  2.0116E-04  2.0113E-04  2.0107E-04  2.0098E-04  2.0089E-04  2.0080E-04  2.0072E-04
       2.0065E-04
   9   2.0110E-04  2.0109E-04  2.0108E-04  2.0107E-04  2.0106E-04  2.0107E-04  2.0107E-04  2.0108E-04  2.0108E-04  2.0110E-04
       2.0113E-04  2.0115E-04  2.0117E-04  2.0116E-04  2.0114E-04  2.0109E-04  2.0102E-04  2.0092E-04  2.0083E-04  2.0074E-04
       2.0067E-04
  10   2.0110E-04  2.0109E-04  2.0108E-04  2.0107E-04  2.0107E-04  2.0108E-04  2.0108E-04  2.0109E-04  2.0109E-04  2.0110E-04
       2.0112E-04  2.0115E-04  2.0116E-04  2.0116E-04  2.0114E-04  2.0110E-04  2.0103E-04  2.0094E-04  2.0085E-04  2.0076E-04
       2.0068E-04
  11   2.0110E-04  2.0109E-04  2.0108E-04  2.0107E-04  2.0107E-04  2.0108E-04  2.0108E-04  2.0108E-04  2.0109E-04  2.0110E-04
       2.0112E-04  2.0114E-04  2.0116E-04  2.0116E-04  2.0115E-04  2.0110E-04  2.0103E-04  2.0094E-04  2.0085E-04  2.0076E-04
       2.0068E-04
  12   2.0109E-04  2.0109E-04  2.0108E-04  2.0107E-04  2.0107E-04  2.0107E-04  2.0107E-04  2.0108E-04  2.0108E-04  2.0109E-04
       2.0111E-04  2.0113E-04  2.0115E-04  2.0117E-04  2.0116E-04  2.0111E-04  2.0103E-04  2.0093E-04  2.0083E-04  2.0074E-04
       2.0066E-04
  13   2.0109E-04  2.0108E-04  2.0107E-04  2.0107E-04  2.0106E-04  2.0106E-04  2.0107E-04  2.0107E-04  2.0108E-04  2.0109E-04
       2.0110E-04  2.0113E-04  2.0116E-04  2.0118E-04  2.0117E-04  2.0111E-04  2.0101E-04  2.0090E-04  2.0079E-04  2.0070E-04
       2.0063E-04
  14   2.0108E-04  2.0107E-04  2.0107E-04  2.0106E-04  2.0105E-04  2.0106E-04  2.0106E-04  2.0107E-04  2.0108E-04  2.0109E-04
       2.0111E-04  2.0113E-04  2.0116E-04  2.0119E-04  2.0118E-04  2.0109E-04  2.0097E-04  2.0084E-04  2.0074E-04  2.0066E-04
       2.0060E-04
  15   2.0107E-04  2.0107E-04  2.0106E-04  2.0105E-04  2.0105E-04  2.0105E-04  2.0105E-04  2.0106E-04  2.0107E-04  2.0109E-04
       2.0111E-04  2.0113E-04  2.0116E-04  2.0118E-04  2.0114E-04  2.0104E-04  2.0090E-04  2.0077E-04  2.0068E-04  2.0061E-04
       2.0055E-04
  16   2.0106E-04  2.0105E-04  2.0105E-04  2.0105E-04  2.0104E-04  2.0104E-04  2.0104E-04  2.0105E-04  2.0106E-04  2.0107E-04
       2.0109E-04  2.0111E-04  2.0112E-04  2.0111E-04  2.0106E-04  2.0093E-04  2.0080E-04  2.0069E-04  2.0061E-04  2.0055E-04
       2.0051E-04
  17   2.0104E-04  2.0104E-04  2.0104E-04  2.0103E-04  2.0103E-04  2.0102E-04  2.0102E-04  2.0102E-04  2.0102E-04  2.0103E-04
       2.0104E-04  2.0104E-04  2.0104E-04  2.0100E-04  2.0093E-04  2.0081E-04  2.0071E-04  2.0062E-04  2.0056E-04  2.0051E-04
       2.0048E-04
  18   2.0103E-04  2.0102E-04  2.0102E-04  2.0101E-04  2.0100E-04  2.0100E-04  2.0099E-04  2.0098E-04  2.0098E-04  2.0097E-04
       2.0097E-04  2.0096E-04  2.0093E-04  2.0088E-04  2.0081E-04  2.0071E-04  2.0063E-04  2.0056E-04  2.0051E-04  2.0047E-04
       2.0045E-04
  19   2.0101E-04  2.0100E-04  2.0099E-04  2.0099E-04  2.0098E-04  2.0097E-04  2.0095E-04  2.0094E-04  2.0093E-04  2.0091E-04
       2.0090E-04  2.0087E-04  2.0083E-04  2.0078E-04  2.0071E-04  2.0064E-04  2.0057E-04  2.0052E-04  2.0048E-04  2.0045E-04
       2.0043E-04
  20   2.0099E-04  2.0098E-04  2.0097E-04  2.0096E-04  2.0095E-04  2.0093E-04  2.0092E-04  2.0090E-04  2.0088E-04  2.0086E-04
       2.0083E-04  2.0080E-04  2.0075E-04  2.0070E-04  2.0064E-04  2.0058E-04  2.0053E-04  2.0049E-04  2.0046E-04  2.0043E-04
       2.0042E-04
  21   2.0097E-04  2.0096E-04  2.0095E-04  2.0094E-04  2.0092E-04  2.0090E-04  2.0089E-04  2.0086E-04  2.0084E-04  2.0081E-04
       2.0078E-04  2.0074E-04  2.0070E-04  2.0065E-04  2.0060E-04  2.0055E-04  2.0051E-04  2.0047E-04  2.0045E-04  2.0042E-04
       2.0041E-04



             ZONE ARRAY: khz1      
 READING ON UNIT   13 WITH FORMAT: (FREE)              

 LPF -- LAYER-PROPERTY FLOW PACKAGE, VERSION 7, 5/2/2005
         INPUT READ FROM UNIT   11
 # MODFLOW2005 Layer Property Flow (LPF) Package Parent MD
 CELL-BY-CELL FLOWS WILL BE SAVED ON UNIT   50
 HEAD AT CELLS THAT CONVERT TO DRY=   999.00    
     1 Named Parameters     

   LAYER FLAGS:
 LAYER       LAYTYP        LAYAVG         CHANI        LAYVKA        LAYWET
 ---------------------------------------------------------------------------
    1             0             0     1.000E+00             1             0

   INTERPRETATION OF LAYER FLAGS:
                        INTERBLOCK     HORIZONTAL    DATA IN
         LAYER TYPE   TRANSMISSIVITY   ANISOTROPY   ARRAY VKA   WETTABILITY
 LAYER      (LAYTYP)      (LAYAVG)       (CHANI)      (LAYVKA)      (LAYWET)
 ---------------------------------------------------------------------------
    1      CONFINED      HARMONIC     1.000E+00    ANISOTROPY  NON-WETTABLE

 WETTING CAPABILITY IS NOT ACTIVE IN ANY LAYER

 PARAMETERS DEFINED IN THE LPF PACKAGE

 PARAMETER NAME:kh000001     TYPE:HK     CLUSTERS:   1
 Parameter value from package file is:    1.0000    
                LAYER:   1    MULTIPLIER ARRAY: M1    ZONE ARRAY: khz1
                ZONE VALUES:    1

    HYD. COND. ALONG ROWS FOR LAYER   1 WILL BE DEFINED BY PARAMETERS
 (PRINT FLAG=  -1)

    HYD. COND. ALONG ROWS is defined by the following parameters:
 kh000001  


              HYD. COND. ALONG ROWS FOR LAYER   1

  HORIZ. TO VERTICAL ANI. =   1.00000     FOR LAYER   1

 WEL -- WELL PACKAGE, VERSION 7, 5/2/2005 INPUT READ FROM UNIT   12
 # MODFLOW2000 Well Package
     0 Named Parameters         0 List entries
 MAXIMUM OF      1 ACTIVE WELLS AT ONE TIME
 CELL-BY-CELL FLOWS WILL BE SAVED ON UNIT   54


     0 Well parameters

 CHD -- TIME-VARIANT SPECIFIED-HEAD OPTION, VERSION 7, 5/2/2005
 INPUT READ FROM UNIT   40
 # MODFLOW2000 Constant-Head Boundary Package (CHD)
 No named parameters
 MAXIMUM OF     80 TIME-VARIANT SPECIFIED-HEAD CELLS AT ONE TIME


     0 TIME-VARIANT SPECIFIED-HEAD PARAMETERS

 PCG -- CONJUGATE-GRADIENT SOLUTION PACKAGE, VERSION 7, 5/2/2005
 MAXIMUM OF   1000 CALLS OF SOLUTION ROUTINE
 MAXIMUM OF     40 INTERNAL ITERATIONS PER CALL TO SOLUTION ROUTINE
 MATRIX PRECONDITIONING TYPE :    1



                                    SOLUTION BY THE CONJUGATE-GRADIENT METHOD
                                   -------------------------------------------
                    MAXIMUM NUMBER OF CALLS TO PCG ROUTINE =     1000
                        MAXIMUM ITERATIONS PER CALL TO PCG =       40
                               MATRIX PRECONDITIONING TYPE =        1
        RELAXATION FACTOR (ONLY USED WITH PRECOND. TYPE 1) =    0.10000E+01
 PARAMETER OF POLYNOMIAL PRECOND. = 2 (2) OR IS CALCULATED :        2
                         HEAD CHANGE CRITERION FOR CLOSURE =    0.10000E-05
                     RESIDUAL CHANGE CRITERION FOR CLOSURE =    0.10000E-05
            PCG HEAD AND RESIDUAL CHANGE PRINTOUT INTERVAL =        5
     PRINTING FROM SOLVER IS LIMITED(1) OR SUPPRESSED (>1) =        0
                                         DAMPING PARAMETER =    0.10000E+01

 OBS2BAS7 -- HEAD OBSERVATIONS, VERSION 2.0, 2/28/2006
 INPUT READ FROM UNIT  18
 # MODFLOW2005 Observation file (HOB) Marco

 NUMBER OF HEADS....................................:   12
   NUMBER OF MULTILAYER HEADS.......................:    0
   MAXIMUM NUMBER OF LAYERS FOR MULTILAYER HEADS....:    2
 HEAD OBSERVATIONS WILL BE SAVED ON UNIT............:   14
 SIMULATED EQUIVALENT HEAD AT DRY CELLS WILL BE:    999.000    

 OBSERVED HEAD DATA -- TIME OFFSETS ARE MULTIPLIED BY:   1.0000    

                    REFER.
       OBSERVATION  STRESS    TIME
  OBS#    NAME      PERIOD   OFFSET    OBSERVATION
     1 P001T0000        1    1.000       999.0    
     2 P002T0000        1    1.000       999.0    
     3 P003T0000        1    1.000       999.0    
     4 P004T0000        1    1.000       999.0    
     5 P005T0000        1    1.000       999.0    
     6 P006T0000        1    1.000       999.0    
     7 P007T0000        1    1.000       999.0    
     8 P008T0000        1    1.000       999.0    
     9 P009T0000        1    1.000       999.0    
    10 P010T0000        1    1.000       999.0    
    11 P011T0000        1    1.000       999.0    
    12 P012T0000        1    1.000       999.0    

                                                     HEAD CHANGE
                                                      REFERENCE
        OBSERVATION                   ROW     COL    OBSERVATION
  OBS#     NAME       LAY  ROW  COL  OFFSET  OFFSET   (IF > 0)
     1  P001T0000       1    5    5   0.000   0.000        0
     2  P002T0000       1   10    5   0.000   0.000        0
     3  P003T0000       1   16    5   0.000   0.000        0
     4  P004T0000       1    7    7   0.000   0.000        0
     5  P005T0000       1   14    7   0.000   0.000        0
     6  P006T0000       1    5   10   0.000   0.000        0
     7  P007T0000       1   16   10   0.000   0.000        0
     8  P008T0000       1    7   14   0.000   0.000        0
     9  P009T0000       1   14   14   0.000   0.000        0
    10  P010T0000       1    5   16   0.000   0.000        0
    11  P011T0000       1   10   16   0.000   0.000        0
    12  P012T0000       1   16   16   0.000   0.000        0

 ADJ -- ADJOINT STATE SENSITIVITY PACKAGE, VERSION -- PRE-RELEASE
        INPUT READ FROM UNIT   35
 # Modflow 2005 ADJ File Input Adjoint MD
 USING OBSERVATION BASED ADJOINT STATE MODE
SENSITIVITY OUTPUT FILE CONTROL INFORMATION -   44  12   0   0
 Adjoint state solver information  read from unit 75
 PCG -- CONJUGATE-GRADIENT SOLUTION PACKAGE, VERSION 7, 5/2/2005
 MAXIMUM OF   1000 CALLS OF SOLUTION ROUTINE
 MAXIMUM OF     40 INTERNAL ITERATIONS PER CALL TO SOLUTION ROUTINE
 MATRIX PRECONDITIONING TYPE :    1



                                    SOLUTION BY THE CONJUGATE-GRADIENT METHOD
                                   -------------------------------------------
                    MAXIMUM NUMBER OF CALLS TO PCG ROUTINE =     1000
                        MAXIMUM ITERATIONS PER CALL TO PCG =       40
                               MATRIX PRECONDITIONING TYPE =        1
        RELAXATION FACTOR (ONLY USED WITH PRECOND. TYPE 1) =    0.10000E+01
 PARAMETER OF POLYNOMIAL PRECOND. = 2 (2) OR IS CALCULATED :        2
                         HEAD CHANGE CRITERION FOR CLOSURE =    0.10000E-07
                     RESIDUAL CHANGE CRITERION FOR CLOSURE =    0.10000E-07
            PCG HEAD AND RESIDUAL CHANGE PRINTOUT INTERVAL =        5
     PRINTING FROM SOLVER IS LIMITED(1) OR SUPPRESSED (>1) =        0
                                         DAMPING PARAMETER =    0.10000E+01

 NUMBER OF PARAMETERS READ FROM ADJ FILE:    1
 NUMBER OF DISTRIBUTED PARAMETERS  441
DISTRIBUTED PARAMETER SENSITIVITIES WRITTEN TO UNIT  48 USING OUTPUT FORMAT   1
RELATIVE SENSITIVITY CUTOFF =   0.000    
DISTRIBUTED PARAMETERS ARE PARAMETERS:
   1   1   1   1   1   1   1   1   1   1
DISTRIBUTED PARAMETERS ARE PARAMETERS:
   1   1   1   1   1   1   1   1   1   1
DISTRIBUTED PARAMETERS ARE PARAMETERS:
   1   1   1   1   1   1   1   1   1   1
DISTRIBUTED PARAMETERS ARE PARAMETERS:
   1   1   1   1   1   1   1   1   1   1
DISTRIBUTED PARAMETERS ARE PARAMETERS:
   1   1   1   1   1   1   1   1   1   1
DISTRIBUTED PARAMETERS ARE PARAMETERS:
   1   1   1   1   1   1   1   1   1   1
DISTRIBUTED PARAMETERS ARE PARAMETERS:
   1   1   1   1   1   1   1   1   1   1
DISTRIBUTED PARAMETERS ARE PARAMETERS:
   1   1   1   1   1   1   1   1   1   1
DISTRIBUTED PARAMETERS ARE PARAMETERS:
   1   1   1   1   1   1   1   1   1   1
DISTRIBUTED PARAMETERS ARE PARAMETERS:
   1   1   1   1   1   1   1   1   1   1
DISTRIBUTED PARAMETERS ARE PARAMETERS:
   1   1   1   1   1   1   1   1   1   1
DISTRIBUTED PARAMETERS ARE PARAMETERS:
   1   1   1   1   1   1   1   1   1   1
DISTRIBUTED PARAMETERS ARE PARAMETERS:
   1   1   1   1   1   1   1   1   1   1
DISTRIBUTED PARAMETERS ARE PARAMETERS:
   1   1   1   1   1   1   1   1   1   1
DISTRIBUTED PARAMETERS ARE PARAMETERS:
   1   1   1   1   1   1   1   1   1   1
DISTRIBUTED PARAMETERS ARE PARAMETERS:
   1   1   1   1   1   1   1   1   1   1
DISTRIBUTED PARAMETERS ARE PARAMETERS:
   1   1   1   1   1   1   1   1   1   1
DISTRIBUTED PARAMETERS ARE PARAMETERS:
   1   1   1   1   1   1   1   1   1   1
DISTRIBUTED PARAMETERS ARE PARAMETERS:
   1   1   1   1   1   1   1   1   1   1
DISTRIBUTED PARAMETERS ARE PARAMETERS:
   1   1   1   1   1   1   1   1   1   1
DISTRIBUTED PARAMETERS ARE PARAMETERS:
   1   1   1   1   1   1   1   1   1   1
DISTRIBUTED PARAMETERS ARE PARAMETERS:
   1   1   1   1   1   1   1   1   1   1
DISTRIBUTED PARAMETERS ARE PARAMETERS:
   1   1   1   1   1   1   1   1   1   1
DISTRIBUTED PARAMETERS ARE PARAMETERS:
   1   1   1   1   1   1   1   1   1   1
DISTRIBUTED PARAMETERS ARE PARAMETERS:
   1   1   1   1   1   1   1   1   1   1
DISTRIBUTED PARAMETERS ARE PARAMETERS:
   1   1   1   1   1   1   1   1   1   1
DISTRIBUTED PARAMETERS ARE PARAMETERS:
   1   1   1   1   1   1   1   1   1   1
DISTRIBUTED PARAMETERS ARE PARAMETERS:
   1   1   1   1   1   1   1   1   1   1
DISTRIBUTED PARAMETERS ARE PARAMETERS:
   1   1   1   1   1   1   1   1   1   1
DISTRIBUTED PARAMETERS ARE PARAMETERS:
   1   1   1   1   1   1   1   1   1   1
DISTRIBUTED PARAMETERS ARE PARAMETERS:
   1   1   1   1   1   1   1   1   1   1
DISTRIBUTED PARAMETERS ARE PARAMETERS:
   1   1   1   1   1   1   1   1   1   1
DISTRIBUTED PARAMETERS ARE PARAMETERS:
   1   1   1   1   1   1   1   1   1   1
DISTRIBUTED PARAMETERS ARE PARAMETERS:
   1   1   1   1   1   1   1   1   1   1
DISTRIBUTED PARAMETERS ARE PARAMETERS:
   1   1   1   1   1   1   1   1   1   1
DISTRIBUTED PARAMETERS ARE PARAMETERS:
   1   1   1   1   1   1   1   1   1   1
DISTRIBUTED PARAMETERS ARE PARAMETERS:
   1   1   1   1   1   1   1   1   1   1
DISTRIBUTED PARAMETERS ARE PARAMETERS:
   1   1   1   1   1   1   1   1   1   1
DISTRIBUTED PARAMETERS ARE PARAMETERS:
   1   1   1   1   1   1   1   1   1   1
DISTRIBUTED PARAMETERS ARE PARAMETERS:
   1   1   1   1   1   1   1   1   1   1
DISTRIBUTED PARAMETERS ARE PARAMETERS:
   1   1   1   1   1   1   1   1   1   1
DISTRIBUTED PARAMETERS ARE PARAMETERS:
   1   1   1   1   1   1   1   1   1   1
DISTRIBUTED PARAMETERS ARE PARAMETERS:
   1   1   1   1   1   1   1   1   1   1
DISTRIBUTED PARAMETERS ARE PARAMETERS:
   1   1   1   1   1   1   1   1   1   1
DISTRIBUTED PARAMETERS ARE PARAMETERS:
   1

 INFORMATION ON PARAMETERS LISTED IN ADJ FILE

    NAME     LN
 ----------  -----  
 kh000001      0
1
                            STRESS PERIOD NO.    1, LENGTH =   1.000000    
                            -----------------------------------------------

                              NUMBER OF TIME STEPS =     1

                               MULTIPLIER FOR DELT =     1.000

                            INITIAL TIME STEP SIZE =   1.000000    

 WELL NO.  LAYER   ROW   COL   STRESS RATE         
 --------------------------------------------------
      1      1     13      6      -3.000    

      1 WELL 

 CHD NO.   LAYER   ROW   COL    START HEAD        END HEAD         
 ------------------------------------------------------------------
      1      1      1      1       35.00           35.00    
      2      1      1      2       35.00           35.00    
      3      1      1      3       35.00           35.00    
      4      1      1      4       35.00           35.00    
      5      1      1      5       35.00           35.00    
      6      1      1      6       35.00           35.00    
      7      1      1      7       35.00           35.00    
      8      1      1      8       35.00           35.00    
      9      1      1      9       35.00           35.00    
     10      1      1     10       35.00           35.00    
     11      1      1     11       35.00           35.00    
     12      1      1     12       35.00           35.00    
     13      1      1     13       35.00           35.00    
     14      1      1     14       35.00           35.00    
     15      1      1     15       35.00           35.00    
     16      1      1     16       35.00           35.00    
     17      1      1     17       35.00           35.00    
     18      1      1     18       35.00           35.00    
     19      1      1     19       35.00           35.00    
     20      1      1     20       35.00           35.00    
     21      1      1     21       35.00           35.00    
     22      1      2      1       35.00           35.00    
     23      1      2     21       35.00           35.00    
     24      1      3      1       35.00           35.00    
     25      1      3     21       35.00           35.00    
     26      1      4      1       35.00           35.00    
     27      1      4     21       35.00           35.00    
     28      1      5      1       35.00           35.00    
     29      1      5     21       35.00           35.00    
     30      1      6      1       35.00           35.00    
     31      1      6     21       35.00           35.00    
     32      1      7      1       35.00           35.00    
     33      1      7     21       35.00           35.00    
     34      1      8      1       35.00           35.00    
     35      1      8     21       35.00           35.00    
     36      1      9      1       35.00           35.00    
     37      1      9     21       35.00           35.00    
     38      1     10      1       35.00           35.00    
     39      1     10     21       35.00           35.00    
     40      1     11      1       35.00           35.00    
     41      1     11     21       35.00           35.00    
     42      1     12      1       35.00           35.00    
     43      1     12     21       35.00           35.00    
     44      1     13      1       35.00           35.00    
     45      1     13     21       35.00           35.00    
     46      1     14      1       35.00           35.00    
     47      1     14     21       35.00           35.00    
     48      1     15      1       35.00           35.00    
     49      1     15     21       35.00           35.00    
     50      1     16      1       35.00           35.00    
     51      1     16     21       35.00           35.00    
     52      1     17      1       35.00           35.00    
     53      1     17     21       35.00           35.00    
     54      1     18      1       35.00           35.00    
     55      1     18     21       35.00           35.00    
     56      1     19      1       35.00           35.00    
     57      1     19     21       35.00           35.00    
     58      1     20      1       35.00           35.00    
     59      1     20     21       35.00           35.00    
     60      1     21      1       35.00           35.00    
     61      1     21      2       35.00           35.00    
     62      1     21      3       35.00           35.00    
     63      1     21      4       35.00           35.00    
     64      1     21      5       35.00           35.00    
     65      1     21      6       35.00           35.00    
     66      1     21      7       35.00           35.00    
     67      1     21      8       35.00           35.00    
     68      1     21      9       35.00           35.00    
     69      1     21     10       35.00           35.00    
     70      1     21     11       35.00           35.00    
     71      1     21     12       35.00           35.00    
     72      1     21     13       35.00           35.00    
     73      1     21     14       35.00           35.00    
     74      1     21     15       35.00           35.00    
     75      1     21     16       35.00           35.00    
     76      1     21     17       35.00           35.00    
     77      1     21     18       35.00           35.00    
     78      1     21     19       35.00           35.00    
     79      1     21     20       35.00           35.00    
     80      1     21     21       35.00           35.00    


     80 TIME-VARIANT SPECIFIED-HEAD CELLS
 
 SOLVING FOR HEAD 


     3 CALLS TO PCG ROUTINE FOR TIME STEP   1 IN STRESS PERIOD    1
    23 TOTAL ITERATIONS

 MAXIMUM HEAD CHANGE FOR EACH ITERATION (1 INDICATES THE FIRST INNER ITERATION):

    HEAD CHANGE    HEAD CHANGE    HEAD CHANGE    HEAD CHANGE    HEAD CHANGE 
   LAYER,ROW,COL  LAYER,ROW,COL  LAYER,ROW,COL  LAYER,ROW,COL  LAYER,ROW,COL
 ---------------------------------------------------------------------------
  1  -353.3      0  -67.82      0   24.57      0  -9.432      0  -3.299    
   (  1, 13,  6)  (  1, 13,  6)  (  1, 15, 15)  (  1, 12,  7)  (  1, 14,  5)
  0   1.138      0 -0.4920      0 -0.2023      0 -0.8027E-01  0  0.2237E-01
   (  1, 10, 15)  (  1,  8, 11)  (  1, 11,  8)  (  1, 14, 17)  (  1, 17,  9)
  0 -0.1159E-01  0 -0.3114E-02  0 -0.1047E-02  0  0.4533E-03  0 -0.1061E-03
   (  1, 10,  9)  (  1, 16,  3)  (  1, 10, 17)  (  1,  8, 15)  (  1,  9, 18)
  0 -0.4274E-04  0 -0.1220E-04  0 -0.4853E-05  0 -0.1281E-05  0  0.4485E-06
   (  1,  9, 10)  (  1,  6, 12)  (  1,  8,  9)  (  1, 17, 17)  (  1, 16, 16)
  1  0.2174E-05  0  0.5427E-06  1 -0.2308E-06
   (  1, 12,  6)  (  1, 10, 10)  (  1, 14, 15)

 MAXIMUM RESIDUAL FOR EACH ITERATION (1 INDICATES THE FIRST INNER ITERATION):

    RESIDUAL       RESIDUAL       RESIDUAL       RESIDUAL       RESIDUAL    
   LAYER,ROW,COL  LAYER,ROW,COL  LAYER,ROW,COL  LAYER,ROW,COL  LAYER,ROW,COL
 ---------------------------------------------------------------------------
  1  0.9614      0  0.2575      0  0.1527      0  0.5555E-01  0  0.1176E-01
   (  1, 13,  6)  (  1, 12,  7)  (  1, 12,  7)  (  1, 14,  5)  (  1, 11,  8)
  0  0.5690E-02  0  0.2474E-02  0  0.9903E-03  0  0.2739E-03  0  0.1305E-03
   (  1, 11,  8)  (  1, 15,  4)  (  1, 15,  4)  (  1, 10,  9)  (  1, 10,  9)
  0  0.5022E-04  0  0.1201E-04  0  0.4015E-05  0  0.1257E-05  0  0.4412E-06
   (  1, 16,  3)  (  1, 16,  3)  (  1,  9, 10)  (  1, 17,  2)  (  1, 17,  2)
  0  0.1181E-06  0 -0.3594E-07  0 -0.1150E-07  0  0.4123E-08  0  0.1461E-08
   (  1, 17,  2)  (  1, 16,  2)  (  1, 18,  2)  (  1,  7, 12)  (  1, 20, 20)
  1 -0.6433E-08  0  0.2777E-08  1  0.1669E-08
   (  1, 13,  6)  (  1, 14,  6)  (  1, 14,  6)



 OUTPUT CONTROL FOR STRESS PERIOD    1   TIME STEP   1
    SAVE HEAD FOR ALL LAYERS

 HEAD WILL BE SAVED ON UNIT   30 AT END OF TIME STEP   1, STRESS PERIOD    1
1
  VOLUMETRIC BUDGET FOR ENTIRE MODEL AT END OF TIME STEP  1 IN STRESS PERIOD   1
  ------------------------------------------------------------------------------

     CUMULATIVE VOLUMES      L**3       RATES FOR THIS TIME STEP      L**3/T
     ------------------                 ------------------------

           IN:                                      IN:
           ---                                      ---
             STORAGE =           0.0000               STORAGE =           0.0000
       CONSTANT HEAD =           3.0000         CONSTANT HEAD =           3.0000
               WELLS =           0.0000                 WELLS =           0.0000

            TOTAL IN =           3.0000              TOTAL IN =           3.0000

          OUT:                                     OUT:
          ----                                     ----
             STORAGE =           0.0000               STORAGE =           0.0000
       CONSTANT HEAD =           0.0000         CONSTANT HEAD =           0.0000
               WELLS =           3.0000                 WELLS =           3.0000

           TOTAL OUT =           3.0000             TOTAL OUT =           3.0000

            IN - OUT =           0.0000              IN - OUT =           0.0000

 PERCENT DISCREPANCY =           0.00     PERCENT DISCREPANCY =           0.00






          TIME SUMMARY AT END OF TIME STEP   1 IN STRESS PERIOD    1
                    SECONDS     MINUTES      HOURS       DAYS        YEARS
                    -----------------------------------------------------------
   TIME STEP LENGTH  1.0000     1.66667E-02 2.77778E-04 1.15741E-05 3.16881E-08
 STRESS PERIOD TIME  1.0000     1.66667E-02 2.77778E-04 1.15741E-05 3.16881E-08
         TOTAL TIME  1.0000     1.66667E-02 2.77778E-04 1.15741E-05 3.16881E-08
1
  START OF ADJOINT STATE CALCULATIONS


     3 CALLS TO PCG ROUTINE FOR TIME STEP   1 IN STRESS PERIOD    1
    30 TOTAL ITERATIONS

 MAXIMUM HEAD CHANGE FOR EACH ITERATION (1 INDICATES THE FIRST INNER ITERATION):

    HEAD CHANGE    HEAD CHANGE    HEAD CHANGE    HEAD CHANGE    HEAD CHANGE 
   LAYER,ROW,COL  LAYER,ROW,COL  LAYER,ROW,COL  LAYER,ROW,COL  LAYER,ROW,COL
 ---------------------------------------------------------------------------
  1   112.1      0  -15.06      0   5.346      0   2.674      0  0.8712    
   (  1,  5,  5)  (  1, 10, 10)  (  1,  4,  7)  (  1,  6,  4)  (  1,  4,  6)
  0  0.2404      0 -0.9420E-01  0  0.3859E-01  0 -0.1412E-01  0  0.3998E-02
   (  1,  2,  8)  (  1, 12,  8)  (  1, 16, 16)  (  1, 17, 17)  (  1, 14,  8)
  0 -0.1276E-02  0  0.4094E-03  0 -0.2257E-03  0 -0.7300E-04  0  0.1546E-04
   (  1, 13, 13)  (  1, 17, 14)  (  1, 14, 11)  (  1, 11, 14)  (  1, 12, 14)
  0 -0.4481E-05  0  0.1458E-05  0 -0.4376E-06  0  0.1753E-06  0  0.7302E-07
   (  1,  4,  4)  (  1, 12, 16)  (  1, 10, 16)  (  1,  9, 15)  (  1, 10, 10)
  0  0.3208E-07  0  0.1485E-07  0 -0.2954E-08  1  0.1184E-05  0 -0.2141E-06
   (  1, 16, 10)  (  1,  7, 10)  (  1,  3,  3)  (  1,  6,  6)  (  1, 11, 11)
  0  0.1115E-06  0  0.3380E-07  0  0.1181E-07  0  0.4294E-08  1 -0.2048E-08
   (  1,  7,  4)  (  1,  7,  3)  (  1,  8,  2)  (  1,  8,  2)  (  1,  9, 13)

 MAXIMUM RESIDUAL FOR EACH ITERATION (1 INDICATES THE FIRST INNER ITERATION):

    RESIDUAL       RESIDUAL       RESIDUAL       RESIDUAL       RESIDUAL    
   LAYER,ROW,COL  LAYER,ROW,COL  LAYER,ROW,COL  LAYER,ROW,COL  LAYER,ROW,COL
 ---------------------------------------------------------------------------
  1 -0.2496      0 -0.7396E-01  0 -0.3938E-01  0 -0.1422E-01  0 -0.3164E-02
   (  1,  5,  5)  (  1,  5,  5)  (  1,  6,  4)  (  1,  4,  6)  (  1,  6,  4)
  0  0.1123E-02  0 -0.5504E-03  0 -0.1886E-03  0 -0.4454E-04  0 -0.1821E-04
   (  1,  6,  3)  (  1,  7,  3)  (  1,  7,  3)  (  1,  7,  3)  (  1,  8,  2)
  0 -0.6838E-05  0 -0.2968E-05  0 -0.1162E-05  0 -0.2735E-06  0  0.7931E-07
   (  1,  2,  8)  (  1,  8,  2)  (  1,  2,  8)  (  1,  8,  2)  (  1,  4,  4)
  0  0.2770E-07  0  0.5310E-08  0  0.1644E-08  0  0.5140E-09  0  0.2369E-09
   (  1,  4,  4)  (  1,  4,  4)  (  1,  4,  4)  (  1,  9,  2)  (  1,  3,  3)
  0  0.1523E-09  0  0.4786E-10  0 -0.7547E-11  1 -0.1348E-08  0  0.6648E-09
   (  1,  3,  3)  (  1,  3,  3)  (  1,  5,  6)  (  1,  7,  4)  (  1,  4,  4)
  0 -0.2735E-09  0 -0.1352E-09  0 -0.4944E-10  0 -0.1398E-10  1 -0.8290E-11
   (  1,  6,  2)  (  1,  8,  2)  (  1,  8,  2)  (  1,  2,  8)  (  1,  9,  2)


        SENSITIVITY CALCULATION FOR GLOBAL OBSERVATION  1 P001T0000   


     3 CALLS TO PCG ROUTINE FOR TIME STEP   1 IN STRESS PERIOD    1
    30 TOTAL ITERATIONS

 MAXIMUM HEAD CHANGE FOR EACH ITERATION (1 INDICATES THE FIRST INNER ITERATION):

    HEAD CHANGE    HEAD CHANGE    HEAD CHANGE    HEAD CHANGE    HEAD CHANGE 
   LAYER,ROW,COL  LAYER,ROW,COL  LAYER,ROW,COL  LAYER,ROW,COL  LAYER,ROW,COL
 ---------------------------------------------------------------------------
  1   115.7      0   19.39      0  -7.541      0   2.989      0  0.9695    
   (  1, 10,  5)  (  1, 10,  5)  (  1, 13, 15)  (  1,  9,  6)  (  1, 11,  4)
  0  0.3957      0 -0.1458      0  0.8341E-01  0 -0.2683E-01  0  0.7973E-02
   (  1,  8,  8)  (  1,  9,  9)  (  1, 15, 14)  (  1, 17, 17)  (  1, 12,  3)
  0  0.2762E-02  0  0.1074E-02  0  0.3478E-03  0 -0.1190E-03  0 -0.4964E-04
   (  1,  9,  8)  (  1,  7, 15)  (  1,  6,  9)  (  1, 12, 16)  (  1, 17,  9)
  0 -0.1218E-04  0  0.3299E-05  0  0.9128E-06  0  0.3435E-06  0  0.1334E-06
   (  1,  7, 17)  (  1,  5, 10)  (  1, 16, 18)  (  1, 17, 14)  (  1,  4, 11)
  0  0.3357E-07  0  0.1363E-07  0 -0.8223E-08  1  0.1689E-05  0  0.3335E-06
   (  1,  6,  8)  (  1, 11, 14)  (  1, 10, 12)  (  1, 10,  5)  (  1, 10,  5)
  0 -0.1083E-06  0  0.4048E-07  0  0.1601E-07  0 -0.5025E-08  1  0.2907E-08
   (  1, 14, 17)  (  1, 11,  4)  (  1, 11,  4)  (  1, 15, 14)  (  1, 16, 16)

 MAXIMUM RESIDUAL FOR EACH ITERATION (1 INDICATES THE FIRST INNER ITERATION):

    RESIDUAL       RESIDUAL       RESIDUAL       RESIDUAL       RESIDUAL    
   LAYER,ROW,COL  LAYER,ROW,COL  LAYER,ROW,COL  LAYER,ROW,COL  LAYER,ROW,COL
 ---------------------------------------------------------------------------
  1 -0.2911      0 -0.7974E-01  0 -0.4794E-01  0 -0.1653E-01  0 -0.3584E-02
   (  1, 10,  5)  (  1,  9,  6)  (  1,  9,  6)  (  1,  9,  6)  (  1,  8,  7)
  0 -0.1811E-02  0 -0.8019E-03  0 -0.3350E-03  0 -0.1175E-03  0 -0.3715E-04
   (  1,  8,  7)  (  1,  8,  7)  (  1, 12,  3)  (  1, 12,  3)  (  1,  7,  8)
  0 -0.1121E-04  0 -0.3965E-05  0 -0.1421E-05  0 -0.4634E-06  0  0.1144E-06
   (  1, 13,  2)  (  1, 13,  2)  (  1, 13,  2)  (  1, 13,  2)  (  1, 14,  2)
  0 -0.4012E-07  0 -0.8342E-08  0  0.2834E-08  0 -0.1427E-08  0 -0.3819E-09
   (  1,  5, 10)  (  1,  5, 10)  (  1, 14,  2)  (  1,  4, 11)  (  1,  4, 11)
  0 -0.1116E-09  0 -0.5463E-10  0 -0.2467E-10  1 -0.4763E-08  0 -0.1691E-08
   (  1,  4, 11)  (  1,  4, 11)  (  1,  3, 12)  (  1, 10,  5)  (  1, 11,  4)
  0 -0.7943E-09  0 -0.2500E-09  0  0.5052E-10  0 -0.2688E-10  1 -0.1521E-10
   (  1, 11,  4)  (  1,  9,  6)  (  1, 12,  4)  (  1,  8,  7)  (  1,  8,  7)


        SENSITIVITY CALCULATION FOR GLOBAL OBSERVATION  2 P002T0000   


     3 CALLS TO PCG ROUTINE FOR TIME STEP   1 IN STRESS PERIOD    1
    30 TOTAL ITERATIONS

 MAXIMUM HEAD CHANGE FOR EACH ITERATION (1 INDICATES THE FIRST INNER ITERATION):

    HEAD CHANGE    HEAD CHANGE    HEAD CHANGE    HEAD CHANGE    HEAD CHANGE 
   LAYER,ROW,COL  LAYER,ROW,COL  LAYER,ROW,COL  LAYER,ROW,COL  LAYER,ROW,COL
 ---------------------------------------------------------------------------
  1   116.7      0   19.73      0  -5.761      0  -2.583      0 -0.9040    
   (  1, 16,  5)  (  1, 14,  9)  (  1, 17, 13)  (  1, 14, 16)  (  1, 11, 18)
  0  0.2878      0  0.9575E-01  0  0.3712E-01  0 -0.1642E-01  0  0.9588E-02
   (  1,  8, 15)  (  1, 16, 19)  (  1, 16, 16)  (  1, 13, 14)  (  1, 11, 11)
  0 -0.3011E-02  0  0.9651E-03  0 -0.3937E-03  0  0.1274E-03  0  0.3911E-04
   (  1,  9,  9)  (  1, 12, 18)  (  1, 10, 14)  (  1,  8, 13)  (  1,  9,  8)
  0  0.9021E-05  0  0.3404E-05  0 -0.9928E-06  0 -0.2963E-06  0  0.1158E-06
   (  1, 18,  7)  (  1,  9, 11)  (  1,  6,  8)  (  1, 15, 17)  (  1, 12,  9)
  0 -0.4091E-07  0 -0.1661E-07  0 -0.6375E-08  1 -0.1397E-05  0 -0.2755E-06
   (  1, 13, 11)  (  1, 11, 14)  (  1, 19, 16)  (  1, 16,  5)  (  1, 15, 10)
  0 -0.1090E-06  0  0.3805E-07  0  0.1460E-07  0 -0.4553E-08  1 -0.1948E-08
   (  1, 11, 13)  (  1, 16, 16)  (  1, 10, 17)  (  1,  8, 14)  (  1, 12, 10)

 MAXIMUM RESIDUAL FOR EACH ITERATION (1 INDICATES THE FIRST INNER ITERATION):

    RESIDUAL       RESIDUAL       RESIDUAL       RESIDUAL       RESIDUAL    
   LAYER,ROW,COL  LAYER,ROW,COL  LAYER,ROW,COL  LAYER,ROW,COL  LAYER,ROW,COL
 ---------------------------------------------------------------------------
  1 -0.2320      0 -0.7766E-01  0 -0.4038E-01  0 -0.1420E-01  0 -0.3770E-02
   (  1, 16,  5)  (  1, 15,  6)  (  1, 15,  6)  (  1, 17,  4)  (  1, 17,  4)
  0 -0.1782E-02  0 -0.5325E-03  0 -0.1916E-03  0  0.7868E-04  0 -0.3482E-04
   (  1, 14,  7)  (  1, 18,  3)  (  1, 18,  3)  (  1, 20,  3)  (  1, 13,  8)
  0 -0.1094E-04  0 -0.3828E-05  0 -0.1480E-05  0 -0.4653E-06  0 -0.1246E-06
   (  1, 19,  2)  (  1, 19,  2)  (  1, 12,  9)  (  1, 19,  2)  (  1, 18,  7)
  0  0.3665E-07  0 -0.9233E-08  0 -0.3431E-08  0 -0.1043E-08  0 -0.2833E-09
   (  1, 20,  2)  (  1, 11, 10)  (  1, 10, 11)  (  1, 10, 11)  (  1, 20, 20)
  0 -0.1001E-09  0 -0.6018E-10  0  0.1608E-10  1  0.1385E-08  0  0.6806E-09
   (  1, 15, 11)  (  1, 16,  6)  (  1, 16,  7)  (  1, 17,  4)  (  1, 17,  4)
  0  0.2724E-09  0  0.1531E-09  0  0.6589E-10  0  0.2276E-10  1  0.1464E-10
   (  1, 17,  4)  (  1, 19,  2)  (  1, 19,  2)  (  1, 19,  2)  (  1, 19,  2)


        SENSITIVITY CALCULATION FOR GLOBAL OBSERVATION  3 P003T0000   


     3 CALLS TO PCG ROUTINE FOR TIME STEP   1 IN STRESS PERIOD    1
    30 TOTAL ITERATIONS

 MAXIMUM HEAD CHANGE FOR EACH ITERATION (1 INDICATES THE FIRST INNER ITERATION):

    HEAD CHANGE    HEAD CHANGE    HEAD CHANGE    HEAD CHANGE    HEAD CHANGE 
   LAYER,ROW,COL  LAYER,ROW,COL  LAYER,ROW,COL  LAYER,ROW,COL  LAYER,ROW,COL
 ---------------------------------------------------------------------------
  1   114.5      0   24.98      0   6.802      0   3.229      0  0.9659    
   (  1,  7,  7)  (  1,  7,  7)  (  1,  5,  9)  (  1,  8,  6)  (  1,  6,  8)
  0  0.2893      0 -0.1108      0  0.5783E-01  0 -0.1208E-01  0  0.6691E-02
   (  1, 12,  8)  (  1, 13,  9)  (  1, 17, 17)  (  1, 17, 17)  (  1, 13, 13)
  0 -0.1420E-02  0  0.6210E-03  0  0.2401E-03  0 -0.7979E-04  0  0.1796E-04
   (  1, 18, 15)  (  1, 14, 11)  (  1, 11, 14)  (  1, 12, 15)  (  1,  6, 11)
  0 -0.5480E-05  0  0.1667E-05  0 -0.6959E-06  0 -0.3081E-06  0 -0.7075E-07
   (  1, 13, 17)  (  1, 17, 17)  (  1,  9, 15)  (  1, 14,  9)  (  1,  8, 11)
  0  0.2711E-07  0  0.1678E-07  0 -0.3596E-08  1 -0.1401E-05  0 -0.3874E-06
   (  1, 11, 17)  (  1, 11, 11)  (  1, 18, 16)  (  1,  8,  8)  (  1,  7,  8)
  0 -0.1439E-06  0  0.4570E-07  0  0.1364E-07  0 -0.5604E-08  1  0.3007E-08
   (  1,  6,  9)  (  1,  9, 18)  (  1, 16, 12)  (  1, 16, 13)  (  1, 14, 10)

 MAXIMUM RESIDUAL FOR EACH ITERATION (1 INDICATES THE FIRST INNER ITERATION):

    RESIDUAL       RESIDUAL       RESIDUAL       RESIDUAL       RESIDUAL    
   LAYER,ROW,COL  LAYER,ROW,COL  LAYER,ROW,COL  LAYER,ROW,COL  LAYER,ROW,COL
 ---------------------------------------------------------------------------
  1 -0.3592      0 -0.9971E-01  0 -0.5132E-01  0 -0.1732E-01  0 -0.3652E-02
   (  1,  7,  7)  (  1,  7,  7)  (  1,  8,  6)  (  1,  8,  6)  (  1,  9,  5)
  0 -0.1967E-02  0 -0.5915E-03  0  0.1605E-03  0 -0.5731E-04  0 -0.1773E-04
   (  1,  9,  5)  (  1,  9,  5)  (  1, 10,  5)  (  1,  4, 10)  (  1, 10,  4)
  0 -0.4547E-05  0  0.2191E-05  0 -0.9713E-06  0 -0.2579E-06  0  0.5894E-07
   (  1,  4, 10)  (  1,  4, 11)  (  1,  3, 11)  (  1, 11,  3)  (  1,  4,  6)
  0 -0.1725E-07  0 -0.6313E-08  0 -0.2631E-08  0 -0.8600E-09  0 -0.2507E-09
   (  1, 12,  2)  (  1,  2, 12)  (  1, 12,  2)  (  1,  2, 12)  (  1, 12,  2)
  0 -0.9530E-10  0 -0.3770E-10  0 -0.8498E-11  1  0.1862E-08  0  0.9958E-09
   (  1, 12,  2)  (  1, 12,  2)  (  1,  5,  5)  (  1,  7,  8)  (  1,  6,  9)
  0  0.3729E-09  0  0.1008E-09  0  0.4680E-10  0  0.1571E-10  1  0.1038E-10
   (  1,  6,  9)  (  1,  2, 10)  (  1,  5, 10)  (  1,  2, 13)  (  1,  2, 13)


        SENSITIVITY CALCULATION FOR GLOBAL OBSERVATION  4 P004T0000   


     3 CALLS TO PCG ROUTINE FOR TIME STEP   1 IN STRESS PERIOD    1
    30 TOTAL ITERATIONS

 MAXIMUM HEAD CHANGE FOR EACH ITERATION (1 INDICATES THE FIRST INNER ITERATION):

    HEAD CHANGE    HEAD CHANGE    HEAD CHANGE    HEAD CHANGE    HEAD CHANGE 
   LAYER,ROW,COL  LAYER,ROW,COL  LAYER,ROW,COL  LAYER,ROW,COL  LAYER,ROW,COL
 ---------------------------------------------------------------------------
  1   117.3      0   25.44      0  -8.010      0   3.282      0   1.169    
   (  1, 14,  7)  (  1, 14,  7)  (  1, 15, 15)  (  1, 13,  8)  (  1, 15,  6)
  0 -0.3420      0  0.1454      0  0.6895E-01  0  0.3019E-01  0  0.7714E-02
   (  1, 11, 16)  (  1,  9, 12)  (  1, 12,  9)  (  1, 14, 17)  (  1, 17, 15)
  0  0.3507E-02  0  0.1053E-02  0  0.3808E-03  0 -0.1625E-03  0 -0.4166E-04
   (  1, 11, 10)  (  1, 16, 13)  (  1, 11, 18)  (  1,  8, 15)  (  1, 10, 12)
  0  0.1674E-04  0 -0.4491E-05  0  0.1274E-05  0 -0.4500E-06  0 -0.1748E-06
   (  1,  9, 10)  (  1,  7,  8)  (  1,  9,  9)  (  1,  6, 17)  (  1, 15, 16)
  0 -0.6077E-07  0 -0.2352E-07  0 -0.8048E-08  1 -0.5436E-06  0 -0.1632E-06
   (  1, 17,  8)  (  1, 11, 12)  (  1, 11, 18)  (  1, 15,  6)  (  1, 13, 10)
  0 -0.8626E-07  0  0.2672E-07  0 -0.1028E-07  0 -0.3253E-08  1  0.1724E-08
   (  1, 14,  8)  (  1, 15, 10)  (  1, 13,  9)  (  1, 16, 17)  (  1, 13, 15)

 MAXIMUM RESIDUAL FOR EACH ITERATION (1 INDICATES THE FIRST INNER ITERATION):

    RESIDUAL       RESIDUAL       RESIDUAL       RESIDUAL       RESIDUAL    
   LAYER,ROW,COL  LAYER,ROW,COL  LAYER,ROW,COL  LAYER,ROW,COL  LAYER,ROW,COL
 ---------------------------------------------------------------------------
  1 -0.3502      0 -0.9015E-01  0 -0.5332E-01  0 -0.1943E-01  0 -0.3951E-02
   (  1, 14,  7)  (  1, 13,  8)  (  1, 13,  8)  (  1, 15,  6)  (  1, 12,  9)
  0 -0.1920E-02  0 -0.7380E-03  0 -0.2554E-03  0 -0.9094E-04  0 -0.4611E-04
   (  1, 16,  5)  (  1, 12,  9)  (  1, 16,  5)  (  1, 11, 10)  (  1, 11, 10)
  0 -0.1240E-04  0 -0.3444E-05  0 -0.1567E-05  0 -0.5152E-06  0 -0.1352E-06
   (  1, 17,  4)  (  1, 10, 11)  (  1, 18,  3)  (  1, 18,  3)  (  1, 18,  3)
  0 -0.3729E-07  0  0.1208E-07  0  0.4560E-08  0  0.1605E-08  0 -0.5277E-09
   (  1,  9, 12)  (  1, 18,  2)  (  1, 18,  2)  (  1, 18,  2)  (  1, 20, 20)
  0  0.1432E-09  0  0.7360E-10  0 -0.2779E-10  1  0.2141E-08  0  0.1165E-08
   (  1, 20,  2)  (  1, 20,  2)  (  1,  7, 14)  (  1, 14,  8)  (  1, 14,  8)
  0  0.3573E-09  0  0.1152E-09  0  0.3759E-10  0  0.1744E-10  1  0.1073E-10
   (  1, 14,  8)  (  1, 13,  9)  (  1, 13,  9)  (  1, 17,  4)  (  1, 17,  4)


        SENSITIVITY CALCULATION FOR GLOBAL OBSERVATION  5 P005T0000   


     3 CALLS TO PCG ROUTINE FOR TIME STEP   1 IN STRESS PERIOD    1
    30 TOTAL ITERATIONS

 MAXIMUM HEAD CHANGE FOR EACH ITERATION (1 INDICATES THE FIRST INNER ITERATION):

    HEAD CHANGE    HEAD CHANGE    HEAD CHANGE    HEAD CHANGE    HEAD CHANGE 
   LAYER,ROW,COL  LAYER,ROW,COL  LAYER,ROW,COL  LAYER,ROW,COL  LAYER,ROW,COL
 ---------------------------------------------------------------------------
  1   115.7      0   19.39      0  -7.542      0   2.989      0  0.9696    
   (  1,  5, 10)  (  1,  5, 10)  (  1, 15, 13)  (  1,  6,  9)  (  1,  4, 11)
  0  0.3957      0 -0.1458      0  0.8339E-01  0 -0.2683E-01  0  0.7973E-02
   (  1,  8,  8)  (  1,  9,  9)  (  1, 14, 15)  (  1, 17, 17)  (  1,  3, 12)
  0  0.2762E-02  0  0.1074E-02  0  0.3481E-03  0 -0.1191E-03  0 -0.4964E-04
   (  1,  8,  9)  (  1, 15,  7)  (  1,  9,  6)  (  1, 16, 12)  (  1,  9, 17)
  0 -0.1218E-04  0  0.3299E-05  0  0.9093E-06  0  0.3373E-06  0  0.1327E-06
   (  1, 17,  7)  (  1, 10,  5)  (  1, 18, 16)  (  1, 14, 17)  (  1, 11,  4)
  0  0.4223E-07  0  0.1153E-07  0 -0.5259E-08  1  0.1346E-05  0  0.2710E-06
   (  1, 10,  7)  (  1,  6, 16)  (  1, 11, 13)  (  1,  5, 10)  (  1, 12, 10)
  0 -0.1001E-06  0  0.3902E-07  0 -0.1408E-07  0  0.7466E-08  1 -0.2734E-08
   (  1, 16, 14)  (  1,  4, 12)  (  1,  6,  7)  (  1,  8,  8)  (  1, 11, 12)

 MAXIMUM RESIDUAL FOR EACH ITERATION (1 INDICATES THE FIRST INNER ITERATION):

    RESIDUAL       RESIDUAL       RESIDUAL       RESIDUAL       RESIDUAL    
   LAYER,ROW,COL  LAYER,ROW,COL  LAYER,ROW,COL  LAYER,ROW,COL  LAYER,ROW,COL
 ---------------------------------------------------------------------------
  1 -0.2911      0 -0.7974E-01  0 -0.4794E-01  0 -0.1652E-01  0 -0.3584E-02
   (  1,  5, 10)  (  1,  6,  9)  (  1,  6,  9)  (  1,  6,  9)  (  1,  7,  8)
  0 -0.1811E-02  0 -0.8015E-03  0 -0.3349E-03  0 -0.1174E-03  0 -0.3716E-04
   (  1,  7,  8)  (  1,  7,  8)  (  1,  3, 12)  (  1,  3, 12)  (  1,  8,  7)
  0 -0.1120E-04  0 -0.3963E-05  0 -0.1421E-05  0 -0.4630E-06  0  0.1144E-06
   (  1,  2, 13)  (  1,  2, 13)  (  1,  2, 13)  (  1,  2, 13)  (  1,  2, 14)
  0 -0.4012E-07  0 -0.8341E-08  0  0.2832E-08  0 -0.1428E-08  0 -0.3787E-09
   (  1, 10,  5)  (  1, 10,  5)  (  1,  2, 14)  (  1, 11,  4)  (  1, 11,  4)
  0 -0.1077E-09  0 -0.3705E-10  0 -0.2246E-10  1 -0.3906E-08  0  0.1497E-08
   (  1, 11,  4)  (  1, 12,  3)  (  1, 12,  3)  (  1,  5, 10)  (  1,  4, 10)
  0  0.6622E-09  0 -0.2106E-09  0  0.7201E-10  0  0.2744E-10  1  0.1805E-10
   (  1,  4, 10)  (  1,  6,  9)  (  1,  6,  8)  (  1,  3, 11)  (  1,  3, 11)


        SENSITIVITY CALCULATION FOR GLOBAL OBSERVATION  6 P006T0000   


     3 CALLS TO PCG ROUTINE FOR TIME STEP   1 IN STRESS PERIOD    1
    30 TOTAL ITERATIONS

 MAXIMUM HEAD CHANGE FOR EACH ITERATION (1 INDICATES THE FIRST INNER ITERATION):

    HEAD CHANGE    HEAD CHANGE    HEAD CHANGE    HEAD CHANGE    HEAD CHANGE 
   LAYER,ROW,COL  LAYER,ROW,COL  LAYER,ROW,COL  LAYER,ROW,COL  LAYER,ROW,COL
 ---------------------------------------------------------------------------
  1   111.8      0   28.71      0  -6.318      0   3.246      0   1.135    
   (  1, 16, 10)  (  1, 16, 10)  (  1, 17, 17)  (  1, 15, 11)  (  1, 17,  9)
  0 -0.3158      0 -0.1844      0  0.9851E-01  0 -0.1863E-01  0  0.7563E-02
   (  1,  8, 13)  (  1, 13, 11)  (  1, 14, 12)  (  1, 14, 13)  (  1, 18, 16)
  0  0.2455E-02  0 -0.7227E-03  0  0.2821E-03  0 -0.1378E-03  0 -0.4299E-04
   (  1, 16, 19)  (  1, 12, 17)  (  1, 14, 17)  (  1, 11, 14)  (  1,  8, 15)
  0  0.1068E-04  0 -0.3445E-05  0 -0.1300E-05  0  0.4495E-06  0 -0.1998E-06
   (  1,  7, 14)  (  1, 11, 18)  (  1, 11,  7)  (  1, 14, 16)  (  1, 16, 17)
  0  0.5332E-07  0 -0.2455E-07  0  0.7992E-08  1 -0.2588E-05  0 -0.7918E-06
   (  1, 14, 15)  (  1, 12, 12)  (  1, 11, 11)  (  1, 16, 10)  (  1, 16, 10)
  0 -0.2033E-06  0  0.7225E-07  0 -0.2923E-07  0  0.8988E-08  1  0.5159E-08
   (  1, 18,  8)  (  1, 17, 15)  (  1, 10, 16)  (  1,  8, 13)  (  1, 13, 11)

 MAXIMUM RESIDUAL FOR EACH ITERATION (1 INDICATES THE FIRST INNER ITERATION):

    RESIDUAL       RESIDUAL       RESIDUAL       RESIDUAL       RESIDUAL    
   LAYER,ROW,COL  LAYER,ROW,COL  LAYER,ROW,COL  LAYER,ROW,COL  LAYER,ROW,COL
 ---------------------------------------------------------------------------
  1 -0.3981      0 -0.1008      0 -0.5822E-01  0 -0.1933E-01  0 -0.4843E-02
   (  1, 16, 10)  (  1, 16, 10)  (  1, 17,  9)  (  1, 17,  9)  (  1, 15, 11)
  0 -0.1939E-02  0 -0.1258E-02  0 -0.2805E-03  0 -0.1027E-03  0 -0.4174E-04
   (  1, 14, 12)  (  1, 14, 12)  (  1, 18,  8)  (  1, 13, 13)  (  1, 19,  7)
  0 -0.9103E-05  0 -0.3228E-05  0 -0.9631E-06  0 -0.3556E-06  0  0.1034E-06
   (  1, 19,  7)  (  1, 20, 20)  (  1, 20,  6)  (  1, 12, 14)  (  1, 20, 20)
  0  0.4436E-07  0  0.1244E-07  0 -0.2865E-08  0 -0.1361E-08  0 -0.5348E-09
   (  1, 20, 20)  (  1, 20, 20)  (  1, 11, 15)  (  1, 10, 16)  (  1, 10, 16)
  0 -0.2427E-09  0 -0.9646E-10  0 -0.2455E-10  1  0.5980E-08  0  0.2025E-08
   (  1, 10, 16)  (  1, 20, 20)  (  1, 20, 20)  (  1, 16, 10)  (  1, 17,  9)
  0  0.1065E-08  0  0.3101E-09  0  0.8907E-10  0  0.2994E-10  1  0.2083E-10
   (  1, 17,  9)  (  1, 17,  9)  (  1, 18,  8)  (  1, 16, 10)  (  1, 14, 12)


        SENSITIVITY CALCULATION FOR GLOBAL OBSERVATION  7 P007T0000   


     3 CALLS TO PCG ROUTINE FOR TIME STEP   1 IN STRESS PERIOD    1
    29 TOTAL ITERATIONS

 MAXIMUM HEAD CHANGE FOR EACH ITERATION (1 INDICATES THE FIRST INNER ITERATION):

    HEAD CHANGE    HEAD CHANGE    HEAD CHANGE    HEAD CHANGE    HEAD CHANGE 
   LAYER,ROW,COL  LAYER,ROW,COL  LAYER,ROW,COL  LAYER,ROW,COL  LAYER,ROW,COL
 ---------------------------------------------------------------------------
  1   117.3      0   25.45      0  -8.010      0   3.282      0   1.169    
   (  1,  7, 14)  (  1,  7, 14)  (  1, 15, 15)  (  1,  8, 13)  (  1,  6, 15)
  0 -0.3422      0  0.1455      0  0.6903E-01  0  0.3019E-01  0  0.7708E-02
   (  1, 16, 11)  (  1, 12,  9)  (  1,  9, 12)  (  1, 17, 14)  (  1, 15, 17)
  0  0.3508E-02  0  0.1053E-02  0  0.3807E-03  0 -0.1624E-03  0 -0.4165E-04
   (  1, 10, 11)  (  1, 13, 16)  (  1, 18, 11)  (  1, 15,  8)  (  1, 12, 10)
  0  0.1674E-04  0 -0.4493E-05  0  0.1281E-05  0 -0.4492E-06  0 -0.1597E-06
   (  1, 10,  9)  (  1,  8,  7)  (  1,  9,  9)  (  1, 17,  6)  (  1, 16, 15)
  0 -0.6051E-07  0 -0.1398E-07  0 -0.6447E-08  1 -0.9291E-06  0 -0.1771E-06
   (  1,  8, 17)  (  1, 14,  8)  (  1, 16, 15)  (  1,  7, 14)  (  1, 13, 14)
  0  0.7496E-07  0 -0.2806E-07  0 -0.9042E-08  1  0.3851E-08
   (  1, 14, 15)  (  1,  8, 13)  (  1, 15, 10)  (  1, 14, 17)

 MAXIMUM RESIDUAL FOR EACH ITERATION (1 INDICATES THE FIRST INNER ITERATION):

    RESIDUAL       RESIDUAL       RESIDUAL       RESIDUAL       RESIDUAL    
   LAYER,ROW,COL  LAYER,ROW,COL  LAYER,ROW,COL  LAYER,ROW,COL  LAYER,ROW,COL
 ---------------------------------------------------------------------------
  1 -0.3502      0 -0.9017E-01  0 -0.5333E-01  0 -0.1942E-01  0 -0.3952E-02
   (  1,  7, 14)  (  1,  8, 13)  (  1,  8, 13)  (  1,  6, 15)  (  1,  9, 12)
  0 -0.1919E-02  0 -0.7389E-03  0 -0.2555E-03  0 -0.9093E-04  0 -0.4610E-04
   (  1,  5, 16)  (  1,  9, 12)  (  1,  5, 16)  (  1, 10, 11)  (  1, 10, 11)
  0 -0.1239E-04  0 -0.3442E-05  0 -0.1565E-05  0 -0.5145E-06  0 -0.1349E-06
   (  1,  4, 17)  (  1, 11, 10)  (  1,  3, 18)  (  1,  3, 18)  (  1,  3, 18)
  0 -0.3728E-07  0  0.1207E-07  0  0.4555E-08  0  0.1603E-08  0 -0.5217E-09
   (  1, 12,  9)  (  1,  2, 18)  (  1,  2, 18)  (  1,  2, 18)  (  1, 20, 20)
  0  0.1382E-09  0 -0.4854E-10  0  0.2385E-10  1  0.2621E-08  0 -0.9071E-09
   (  1,  2, 20)  (  1, 14,  7)  (  1,  2, 20)  (  1,  7, 14)  (  1,  8, 15)
  0  0.3801E-09  0  0.1306E-09  0  0.3126E-10  1  0.2056E-10
   (  1,  8, 13)  (  1,  8, 13)  (  1,  8, 13)  (  1,  8, 13)


        SENSITIVITY CALCULATION FOR GLOBAL OBSERVATION  8 P008T0000   


     3 CALLS TO PCG ROUTINE FOR TIME STEP   1 IN STRESS PERIOD    1
    30 TOTAL ITERATIONS

 MAXIMUM HEAD CHANGE FOR EACH ITERATION (1 INDICATES THE FIRST INNER ITERATION):

    HEAD CHANGE    HEAD CHANGE    HEAD CHANGE    HEAD CHANGE    HEAD CHANGE 
   LAYER,ROW,COL  LAYER,ROW,COL  LAYER,ROW,COL  LAYER,ROW,COL  LAYER,ROW,COL
 ---------------------------------------------------------------------------
  1   106.6      0   37.81      0   6.430      0   3.166      0 -0.9893    
   (  1, 14, 14)  (  1, 14, 14)  (  1, 14, 14)  (  1, 15, 13)  (  1, 17, 17)
  0 -0.2756      0 -0.1215      0 -0.3985E-01  0 -0.1530E-01  0  0.5831E-02
   (  1, 15,  8)  (  1, 17, 13)  (  1, 17,  7)  (  1, 10, 10)  (  1,  8,  8)
  0 -0.1472E-02  0 -0.8312E-03  0  0.2327E-03  0 -0.4759E-04  0  0.1708E-04
   (  1, 14, 11)  (  1, 11, 15)  (  1, 20, 20)  (  1, 18, 18)  (  1, 12,  9)
  0 -0.4608E-05  0  0.1635E-05  0  0.7191E-06  0  0.2641E-06  0 -0.1351E-06
   (  1,  9,  7)  (  1, 19, 12)  (  1, 12, 12)  (  1,  7, 14)  (  1, 12, 17)
  0 -0.5658E-07  0  0.1382E-07  0  0.2732E-08  1 -0.1680E-05  0 -0.3269E-06
   (  1, 17, 17)  (  1, 11, 11)  (  1, 18,  6)  (  1, 14, 14)  (  1, 14, 14)
  0 -0.8930E-07  0 -0.5028E-07  0 -0.1353E-07  0  0.5902E-08  1  0.2656E-08
   (  1, 18,  6)  (  1, 15, 13)  (  1, 11, 17)  (  1,  9, 15)  (  1, 15, 11)

 MAXIMUM RESIDUAL FOR EACH ITERATION (1 INDICATES THE FIRST INNER ITERATION):

    RESIDUAL       RESIDUAL       RESIDUAL       RESIDUAL       RESIDUAL    
   LAYER,ROW,COL  LAYER,ROW,COL  LAYER,ROW,COL  LAYER,ROW,COL  LAYER,ROW,COL
 ---------------------------------------------------------------------------
  1 -0.4787      0 -0.1114      0 -0.5046E-01  0 -0.1449E-01  0 -0.4349E-02
   (  1, 14, 14)  (  1, 14, 14)  (  1, 15, 13)  (  1, 13, 15)  (  1, 12, 16)
  0 -0.1699E-02  0 -0.6002E-03  0 -0.1489E-03  0 -0.6703E-04  0 -0.1620E-04
   (  1, 12, 16)  (  1, 16, 12)  (  1, 17, 11)  (  1, 11, 17)  (  1, 17, 11)
  0 -0.6776E-05  0 -0.3813E-05  0 -0.5675E-06  0 -0.1799E-06  0  0.7342E-07
   (  1, 20, 20)  (  1, 20, 20)  (  1, 10, 18)  (  1, 18, 10)  (  1, 20, 20)
  0  0.2225E-07  0  0.4880E-08  0  0.2212E-08  0 -0.1020E-08  0 -0.3387E-09
   (  1, 20, 20)  (  1,  9, 20)  (  1, 20,  9)  (  1,  8, 20)  (  1, 20,  8)
  0 -0.1454E-09  0 -0.4308E-10  0 -0.5231E-11  1  0.6325E-08  0  0.1643E-08
   (  1, 20, 20)  (  1, 20, 20)  (  1, 17, 14)  (  1, 14, 14)  (  1, 13, 15)
  0  0.8383E-09  0  0.2428E-09  0  0.6777E-10  0  0.3558E-10  1  0.2058E-10
   (  1, 13, 15)  (  1, 13, 15)  (  1, 12, 16)  (  1, 12, 16)  (  1, 12, 16)


        SENSITIVITY CALCULATION FOR GLOBAL OBSERVATION  9 P009T0000   


     3 CALLS TO PCG ROUTINE FOR TIME STEP   1 IN STRESS PERIOD    1
    30 TOTAL ITERATIONS

 MAXIMUM HEAD CHANGE FOR EACH ITERATION (1 INDICATES THE FIRST INNER ITERATION):

    HEAD CHANGE    HEAD CHANGE    HEAD CHANGE    HEAD CHANGE    HEAD CHANGE 
   LAYER,ROW,COL  LAYER,ROW,COL  LAYER,ROW,COL  LAYER,ROW,COL  LAYER,ROW,COL
 ---------------------------------------------------------------------------
  1   116.8      0   19.75      0  -5.764      0  -2.585      0 -0.9047    
   (  1,  5, 16)  (  1,  9, 14)  (  1, 13, 17)  (  1, 16, 14)  (  1, 18, 11)
  0  0.2878      0  0.9581E-01  0  0.3723E-01  0 -0.1649E-01  0  0.9615E-02
   (  1, 15,  8)  (  1, 19, 16)  (  1, 16, 16)  (  1, 14, 13)  (  1, 11, 11)
  0 -0.3009E-02  0  0.9662E-03  0 -0.3942E-03  0  0.1275E-03  0  0.3915E-04
   (  1,  9,  9)  (  1, 18, 12)  (  1, 14, 10)  (  1, 13,  8)  (  1,  8,  9)
  0  0.9028E-05  0  0.3403E-05  0 -0.9897E-06  0 -0.3067E-06  0  0.1075E-06
   (  1,  7, 18)  (  1, 11,  9)  (  1,  8,  6)  (  1, 17, 15)  (  1, 14,  6)
  0 -0.3045E-07  0 -0.1075E-07  0  0.5788E-08  1 -0.6953E-06  0 -0.1949E-06
   (  1, 18, 14)  (  1, 15, 18)  (  1, 11, 15)  (  1,  5, 15)  (  1,  9, 13)
  0 -0.6440E-07  0  0.2885E-07  0  0.1018E-07  0 -0.3087E-08  1  0.1182E-08
   (  1, 15, 11)  (  1, 10, 16)  (  1, 18, 11)  (  1, 17, 17)  (  1, 13, 13)

 MAXIMUM RESIDUAL FOR EACH ITERATION (1 INDICATES THE FIRST INNER ITERATION):

    RESIDUAL       RESIDUAL       RESIDUAL       RESIDUAL       RESIDUAL    
   LAYER,ROW,COL  LAYER,ROW,COL  LAYER,ROW,COL  LAYER,ROW,COL  LAYER,ROW,COL
 ---------------------------------------------------------------------------
  1 -0.2320      0 -0.7770E-01  0 -0.4040E-01  0 -0.1419E-01  0 -0.3768E-02
   (  1,  5, 16)  (  1,  6, 15)  (  1,  6, 15)  (  1,  4, 17)  (  1,  4, 17)
  0 -0.1783E-02  0 -0.5321E-03  0 -0.1917E-03  0  0.7884E-04  0 -0.3486E-04
   (  1,  7, 14)  (  1,  3, 18)  (  1,  3, 18)  (  1,  3, 20)  (  1,  8, 13)
  0 -0.1093E-04  0 -0.3823E-05  0 -0.1481E-05  0 -0.4646E-06  0 -0.1246E-06
   (  1,  2, 19)  (  1,  2, 19)  (  1,  9, 12)  (  1,  2, 19)  (  1,  7, 18)
  0  0.3663E-07  0 -0.9235E-08  0 -0.3428E-08  0 -0.1050E-08  0 -0.2812E-09
   (  1,  2, 20)  (  1, 10, 11)  (  1, 11, 10)  (  1, 11, 10)  (  1, 20, 20)
  0 -0.9938E-10  0  0.4028E-10  0  0.1513E-10  1 -0.1837E-08  0 -0.6908E-09
   (  1, 12,  9)  (  1, 20, 19)  (  1,  7, 16)  (  1,  4, 17)  (  1,  6, 16)
  0 -0.2943E-09  0 -0.1419E-09  0 -0.3530E-10  0 -0.1529E-10  1 -0.8215E-11
   (  1,  7, 15)  (  1,  7, 15)  (  1,  3, 18)  (  1,  8, 14)  (  1,  8, 14)


        SENSITIVITY CALCULATION FOR GLOBAL OBSERVATION 10 P010T0000   


     3 CALLS TO PCG ROUTINE FOR TIME STEP   1 IN STRESS PERIOD    1
    30 TOTAL ITERATIONS

 MAXIMUM HEAD CHANGE FOR EACH ITERATION (1 INDICATES THE FIRST INNER ITERATION):

    HEAD CHANGE    HEAD CHANGE    HEAD CHANGE    HEAD CHANGE    HEAD CHANGE 
   LAYER,ROW,COL  LAYER,ROW,COL  LAYER,ROW,COL  LAYER,ROW,COL  LAYER,ROW,COL
 ---------------------------------------------------------------------------
  1   111.8      0   28.72      0  -6.319      0   3.246      0   1.135    
   (  1, 10, 16)  (  1, 10, 16)  (  1, 17, 17)  (  1, 11, 15)  (  1,  9, 17)
  0 -0.3159      0 -0.1845      0  0.9850E-01  0 -0.1863E-01  0  0.7558E-02
   (  1, 13,  8)  (  1, 11, 13)  (  1, 12, 14)  (  1, 13, 14)  (  1, 16, 18)
  0  0.2458E-02  0 -0.7249E-03  0  0.2823E-03  0 -0.1388E-03  0 -0.4311E-04
   (  1, 19, 16)  (  1, 17, 12)  (  1, 17, 14)  (  1, 14, 11)  (  1, 15,  8)
  0  0.1068E-04  0 -0.3440E-05  0 -0.1310E-05  0  0.4183E-06  0 -0.1808E-06
   (  1, 14,  7)  (  1, 18, 11)  (  1,  7, 11)  (  1, 16, 14)  (  1, 17, 16)
  0  0.4434E-07  0 -0.2883E-07  0  0.8655E-08  1 -0.2553E-05  0 -0.6639E-06
   (  1, 13, 13)  (  1, 12, 13)  (  1, 11, 11)  (  1, 10, 16)  (  1, 13, 12)
  0 -0.1845E-06  0 -0.7974E-07  0 -0.2958E-07  0  0.8129E-08  1  0.4058E-08
   (  1, 11, 14)  (  1, 14, 12)  (  1, 16, 10)  (  1, 19, 13)  (  1, 14, 15)

 MAXIMUM RESIDUAL FOR EACH ITERATION (1 INDICATES THE FIRST INNER ITERATION):

    RESIDUAL       RESIDUAL       RESIDUAL       RESIDUAL       RESIDUAL    
   LAYER,ROW,COL  LAYER,ROW,COL  LAYER,ROW,COL  LAYER,ROW,COL  LAYER,ROW,COL
 ---------------------------------------------------------------------------
  1 -0.3981      0 -0.1008      0 -0.5823E-01  0 -0.1932E-01  0 -0.4842E-02
   (  1, 10, 16)  (  1, 10, 16)  (  1,  9, 17)  (  1,  9, 17)  (  1, 11, 15)
  0 -0.1939E-02  0 -0.1258E-02  0 -0.2804E-03  0 -0.1027E-03  0 -0.4172E-04
   (  1, 12, 14)  (  1, 12, 14)  (  1,  8, 18)  (  1, 13, 13)  (  1,  7, 19)
  0 -0.9099E-05  0 -0.3233E-05  0 -0.9691E-06  0 -0.3560E-06  0  0.1034E-06
   (  1,  7, 19)  (  1, 20, 20)  (  1,  6, 20)  (  1, 14, 12)  (  1, 20, 20)
  0  0.4437E-07  0  0.1243E-07  0 -0.2854E-08  0 -0.1340E-08  0 -0.5273E-09
   (  1, 20, 20)  (  1, 20, 20)  (  1, 15, 11)  (  1, 16, 10)  (  1, 16, 10)
  0 -0.1994E-09  0 -0.9560E-10  0 -0.2451E-10  1  0.4241E-08  0  0.1119E-08
   (  1, 16, 10)  (  1, 20, 20)  (  1, 20, 20)  (  1, 10, 16)  (  1,  9, 18)
  0  0.6237E-09  0  0.1805E-09  0  0.7630E-10  0  0.2242E-10  1  0.1754E-10
   (  1, 11, 15)  (  1, 11, 15)  (  1,  7, 18)  (  1,  2, 20)  (  1, 12, 14)


        SENSITIVITY CALCULATION FOR GLOBAL OBSERVATION 11 P011T0000   


     3 CALLS TO PCG ROUTINE FOR TIME STEP   1 IN STRESS PERIOD    1
    28 TOTAL ITERATIONS

 MAXIMUM HEAD CHANGE FOR EACH ITERATION (1 INDICATES THE FIRST INNER ITERATION):

    HEAD CHANGE    HEAD CHANGE    HEAD CHANGE    HEAD CHANGE    HEAD CHANGE 
   LAYER,ROW,COL  LAYER,ROW,COL  LAYER,ROW,COL  LAYER,ROW,COL  LAYER,ROW,COL
 ---------------------------------------------------------------------------
  1   102.2      0   31.40      0  -5.924      0   2.894      0 -0.7226    
   (  1, 16, 16)  (  1, 16, 16)  (  1,  9, 14)  (  1, 17, 15)  (  1,  5, 18)
  0 -0.2802      0 -0.1351      0  0.4725E-01  0  0.1342E-01  0  0.4779E-02
   (  1, 17, 10)  (  1, 17, 13)  (  1,  8,  8)  (  1, 17,  7)  (  1, 12, 12)
  0  0.1382E-02  0  0.6964E-03  0  0.2705E-03  0  0.5141E-04  0  0.1453E-04
   (  1, 12, 15)  (  1, 15, 12)  (  1, 13, 13)  (  1, 20, 20)  (  1, 17,  9)
  0 -0.4023E-05  0  0.1647E-05  0  0.6045E-06  0 -0.2643E-06  0  0.6517E-07
   (  1, 10,  7)  (  1, 15, 10)  (  1, 11, 18)  (  1,  9,  9)  (  1, 15, 15)
  0 -0.5923E-07  0  0.7934E-08  1  0.3202E-06  0 -0.1257E-06  0 -0.3555E-07
   (  1, 11, 11)  (  1,  6,  9)  (  1, 17, 15)  (  1, 15, 13)  (  1, 10, 13)
  0 -0.1907E-07  0 -0.8049E-08  1  0.3412E-08
   (  1, 13, 16)  (  1, 18, 13)  (  1, 16, 11)

 MAXIMUM RESIDUAL FOR EACH ITERATION (1 INDICATES THE FIRST INNER ITERATION):

    RESIDUAL       RESIDUAL       RESIDUAL       RESIDUAL       RESIDUAL    
   LAYER,ROW,COL  LAYER,ROW,COL  LAYER,ROW,COL  LAYER,ROW,COL  LAYER,ROW,COL
 ---------------------------------------------------------------------------
  1 -0.4542      0 -0.1211      0 -0.5711E-01  0 -0.1421E-01  0 -0.3998E-02
   (  1, 16, 16)  (  1, 16, 16)  (  1, 17, 15)  (  1, 15, 17)  (  1, 18, 14)
  0 -0.1476E-02  0 -0.6266E-03  0  0.1653E-03  0 -0.6898E-04  0 -0.1516E-04
   (  1, 14, 18)  (  1, 18, 14)  (  1, 20, 20)  (  1, 13, 19)  (  1, 19, 13)
  0  0.6157E-05  0 -0.3949E-05  0 -0.9752E-06  0  0.1860E-06  0  0.4377E-07
   (  1, 20, 13)  (  1, 20, 20)  (  1, 20, 20)  (  1, 20, 11)  (  1, 11, 20)
  0  0.1415E-07  0  0.5677E-08  0  0.1982E-08  0  0.5027E-09  0  0.3059E-09
   (  1, 20, 20)  (  1, 20, 20)  (  1, 20, 20)  (  1, 13, 18)  (  1, 18, 18)
  0 -0.1289E-09  0 -0.3753E-10  1 -0.1069E-08  0 -0.4492E-09  0  0.1907E-09
   (  1, 17, 17)  (  1, 17, 17)  (  1, 19, 15)  (  1, 17, 18)  (  1, 13, 16)
  0  0.6101E-10  0  0.2175E-10  1  0.1162E-10
   (  1, 18, 13)  (  1, 16, 20)  (  1, 16, 20)


        SENSITIVITY CALCULATION FOR GLOBAL OBSERVATION 12 P012T0000   

 HEAD AND DRAWDOWN OBSERVATIONS
 OBSERVATION      OBSERVED      SIMULATED
   NAME             VALUE         VALUE      DIFFERENCE
 -------------------------------------------------------
 P001T0000       999.000       6.79147       992.209    
 P002T0000       999.000      -77.0031       1076.00    
 P003T0000       999.000      -69.7802       1068.78    
 P004T0000       999.000      -24.5601       1023.56    
 P005T0000       999.000      -173.419       1172.42    
 P006T0000       999.000       2.44262       996.557    
 P007T0000       999.000      -43.0234       1042.02    
 P008T0000       999.000       4.02106       994.979    
 P009T0000       999.000      -10.3652       1009.37    
 P010T0000       999.000       20.6464       978.354    
 P011T0000       999.000       6.38813       992.612    
 P012T0000       999.000       11.6169       987.383    

 SUM OF SQUARED DIFFERENCE:    1.27119E+07

 Run end date and time (yyyy/mm/dd hh:mm:ss): 2011/07/29 16:12:39
 Elapsed run time:  0.078 Seconds

