                        MODFLOW-ADJOINT Version 0.96 07/14/2007
            SENSITIVITY CALCULATIONS USING THE ADJOINT STATE METHOD FOR
      U.S. GEOLOGICAL SURVEY MODULAR FINITE-DIFFERENCE GROUND-WATER FLOW MODEL
                             VERSION 1.1 05/18/2006

 LIST FILE: three_layers.lst
                         UNIT    7

 OPENING three_layers.bas
 FILE TYPE:BAS6   UNIT    1   STATUS:OLD    
 FORMAT:FORMATTED              ACCESS:SEQUENTIAL          

 OPENING three_layers.dis
 FILE TYPE:DIS   UNIT   29   STATUS:OLD    
 FORMAT:FORMATTED              ACCESS:SEQUENTIAL          

 OPENING three_layers.lpf
 FILE TYPE:LPF   UNIT   11   STATUS:OLD    
 FORMAT:FORMATTED              ACCESS:SEQUENTIAL          

 OPENING three_layers.zon
 FILE TYPE:ZONE   UNIT   13   STATUS:OLD    
 FORMAT:FORMATTED              ACCESS:SEQUENTIAL          

 OPENING three_layers.wel
 FILE TYPE:WEL   UNIT   12   STATUS:OLD    
 FORMAT:FORMATTED              ACCESS:SEQUENTIAL          

 OPENING three_layers.oc
 FILE TYPE:OC   UNIT   22   STATUS:OLD    
 FORMAT:FORMATTED              ACCESS:SEQUENTIAL          

 OPENING three_layers.mlt
 FILE TYPE:MULT   UNIT    8   STATUS:OLD    
 FORMAT:FORMATTED              ACCESS:SEQUENTIAL          

 OPENING three_layers.pcg
 FILE TYPE:PCG   UNIT   19   STATUS:OLD    
 FORMAT:FORMATTED              ACCESS:SEQUENTIAL          

 OPENING three_layers.chd
 FILE TYPE:CHD   UNIT   40   STATUS:OLD    
 FORMAT:FORMATTED              ACCESS:SEQUENTIAL          

 OPENING three_layers.hob
 FILE TYPE:HOB   UNIT   18   STATUS:OLD    
 FORMAT:FORMATTED              ACCESS:SEQUENTIAL          

 OPENING three_layers.hbs
 FILE TYPE:DATA   UNIT   14   STATUS:UNKNOWN
 FORMAT:FORMATTED              ACCESS:SEQUENTIAL          

 OPENING three_layers.cbb
 FILE TYPE:DATA(BINARY)   UNIT   50   STATUS:UNKNOWN
 FORMAT:UNFORMATTED            ACCESS:SEQUENTIAL          

 OPENING three_layers.cbw
 FILE TYPE:DATA(BINARY)   UNIT   54   STATUS:UNKNOWN
 FORMAT:UNFORMATTED            ACCESS:SEQUENTIAL          

 OPENING three_layers.hds
 FILE TYPE:DATA(BINARY)   UNIT   30   STATUS:UNKNOWN
 FORMAT:UNFORMATTED            ACCESS:SEQUENTIAL          

 OPENING three_layers.ddn
 FILE TYPE:DATA(BINARY)   UNIT   31   STATUS:UNKNOWN
 FORMAT:UNFORMATTED            ACCESS:SEQUENTIAL          

 BAS -- BASIC PACKAGE, VERSION 7, 5/2/2005 INPUT READ FROM UNIT    1

 DISCRETIZATION INPUT DATA READ FROM UNIT   29
 # Discretization File
 # Upper left corner: (0, 0)
 # Lower left corner: (0, -60)
 # Upper right corner: (70, 0)
 # Lower right corner: (70, -60)
    3 LAYERS        40 ROWS        35 COLUMNS
    1 STRESS PERIOD(S) IN SIMULATION
 MODEL TIME UNIT IS SECONDS
 MODEL LENGTH UNIT IS METERS
  Confining bed flag for each layer:
   0   0   0

                     DELR =   2.00000    

                     DELC =   1.50000    

 TOP ELEVATION OF LAYER 1 =   40.0000    

   MODEL LAYER BOTTOM EL. =   32.0000     FOR LAYER   1

   MODEL LAYER BOTTOM EL. =   18.0000     FOR LAYER   2

   MODEL LAYER BOTTOM EL. =   0.00000     FOR LAYER   3


 STRESS PERIOD     LENGTH       TIME STEPS     MULTIPLIER FOR DELT    SS FLAG
 ----------------------------------------------------------------------------
        1         1.000000          1                    1.000         SS

 STEADY-STATE SIMULATION



 
 # Basic Package file created                                                    
 THE FREE FORMAT OPTION HAS BEEN SELECTED

           BOUNDARY ARRAY =              1 FOR LAYER   1

           BOUNDARY ARRAY =              1 FOR LAYER   2

           BOUNDARY ARRAY =              1 FOR LAYER   3

 AQUIFER HEAD WILL BE SET TO  999.00     AT ALL NO-FLOW NODES (IBOUND=0).

             INITIAL HEAD =   60.0000     FOR LAYER   1

             INITIAL HEAD =   60.0000     FOR LAYER   2

             INITIAL HEAD =   60.0000     FOR LAYER   3

 OUTPUT CONTROL IS SPECIFIED ONLY AT TIME STEPS FOR WHICH OUTPUT IS DESIRED
 HEAD PRINT FORMAT CODE IS   0    DRAWDOWN PRINT FORMAT CODE IS   0
 HEADS WILL BE SAVED ON UNIT   30    DRAWDOWNS WILL BE SAVED ON UNIT   31

 ZONE OPTION, INPUT READ FROM UNIT   13
 # Zone (ZONE) File
     3 ZONE ARRAYS

 MULTIPLIER OPTION, INPUT READ FROM UNIT    8
 # Multiplier (MULT)
   3 MULTIPLIER ARRAYS



            MULT. ARRAY: HK_Par1_M1
 READING ON UNIT    8 WITH FORMAT: (FREE)              

            1           2           3           4           5           6           7           8           9          10
           11          12          13          14          15          16          17          18          19          20
           21          22          23          24          25          26          27          28          29          30
           31          32          33          34          35
 ........................................................................................................................
   1   1.3083E-03  1.3480E-03  1.3879E-03  1.4273E-03  1.4661E-03  1.5045E-03  1.5426E-03  1.5790E-03  1.6111E-03  1.6358E-03
       1.6500E-03  1.6508E-03  1.6362E-03  1.6050E-03  1.5572E-03  1.4939E-03  1.4174E-03  1.3311E-03  1.2399E-03  1.1502E-03
       1.0683E-03  9.9901E-04  9.4372E-04  9.0150E-04  8.7045E-04  8.4856E-04  8.3415E-04  8.2578E-04  8.2224E-04  8.2224E-04
       8.2410E-04  8.2575E-04  8.2535E-04  8.2204E-04  8.1591E-04
   2   1.2822E-03  1.3226E-03  1.3635E-03  1.4038E-03  1.4437E-03  1.4839E-03  1.5248E-03  1.5650E-03  1.6014E-03  1.6304E-03
       1.6483E-03  1.6520E-03  1.6393E-03  1.6088E-03  1.5607E-03  1.4960E-03  1.4169E-03  1.3268E-03  1.2308E-03  1.1356E-03
       1.0493E-03  9.7771E-04  9.2222E-04  8.8102E-04  8.5151E-04  8.3129E-04  8.1850E-04  8.1169E-04  8.0972E-04  8.1144E-04
       8.1522E-04  8.1856E-04  8.1913E-04  8.1608E-04  8.0972E-04
   3   1.2511E-03  1.2912E-03  1.3323E-03  1.3731E-03  1.4134E-03  1.4548E-03  1.4983E-03  1.5421E-03  1.5824E-03  1.6152E-03
       1.6363E-03  1.6425E-03  1.6312E-03  1.6015E-03  1.5534E-03  1.4882E-03  1.4082E-03  1.3167E-03  1.2179E-03  1.1190E-03
       1.0294E-03  9.5709E-04  9.0275E-04  8.6345E-04  8.3590E-04  8.1743E-04  8.0608E-04  8.0042E-04  7.9943E-04  8.0221E-04
       8.0732E-04  8.1190E-04  8.1292E-04  8.0978E-04  8.0310E-04
   4   1.2151E-03  1.2539E-03  1.2944E-03  1.3352E-03  1.3755E-03  1.4178E-03  1.4637E-03  1.5107E-03  1.5544E-03  1.5902E-03
       1.6139E-03  1.6218E-03  1.6115E-03  1.5821E-03  1.5340E-03  1.4691E-03  1.3896E-03  1.2986E-03  1.1996E-03  1.0989E-03
       1.0077E-03  9.3680E-04  8.8532E-04  8.4892E-04  8.2379E-04  8.0716E-04  7.9710E-04  7.9228E-04  7.9177E-04  7.9491E-04
       8.0070E-04  8.0586E-04  8.0662E-04  8.0300E-04  7.9593E-04
   5   1.1747E-03  1.2112E-03  1.2502E-03  1.2906E-03  1.3309E-03  1.3740E-03  1.4223E-03  1.4720E-03  1.5184E-03  1.5567E-03
       1.5822E-03  1.5910E-03  1.5808E-03  1.5510E-03  1.5027E-03  1.4379E-03  1.3595E-03  1.2705E-03  1.1736E-03  1.0736E-03
       9.8320E-04  9.1680E-04  8.7004E-04  8.3740E-04  8.1504E-04  8.0032E-04  7.9146E-04  7.8727E-04  7.8693E-04  7.8986E-04
       7.9571E-04  8.0024E-04  7.9993E-04  7.9558E-04  7.8810E-04
   6   1.1308E-03  1.1641E-03  1.2008E-03  1.2399E-03  1.2809E-03  1.3258E-03  1.3758E-03  1.4276E-03  1.4763E-03  1.5163E-03
       1.5428E-03  1.5517E-03  1.5408E-03  1.5099E-03  1.4606E-03  1.3955E-03  1.3180E-03  1.2313E-03  1.1380E-03  1.0403E-03
       9.5648E-04  8.9808E-04  8.5725E-04  8.2883E-04  8.0935E-04  7.9648E-04  7.8869E-04  7.8495E-04  7.8459E-04  7.8713E-04
       7.9153E-04  7.9396E-04  7.9249E-04  7.8740E-04  7.7959E-04
   7   1.0844E-03  1.1140E-03  1.1478E-03  1.1855E-03  1.2271E-03  1.2738E-03  1.3255E-03  1.3793E-03  1.4298E-03  1.4712E-03
       1.4981E-03  1.5063E-03  1.4940E-03  1.4613E-03  1.4103E-03  1.3445E-03  1.2676E-03  1.1831E-03  1.0936E-03  1.0043E-03
       9.3304E-04  8.8240E-04  8.4728E-04  8.2293E-04  8.0618E-04  7.9498E-04  7.8800E-04  7.8439E-04  7.8355E-04  7.8486E-04
       7.8695E-04  7.8720E-04  7.8435E-04  7.7852E-04  7.7043E-04
   8   1.0369E-03  1.0623E-03  1.0931E-03  1.1293E-03  1.1712E-03  1.2193E-03  1.2729E-03  1.3286E-03  1.3809E-03  1.4235E-03
       1.4506E-03  1.4578E-03  1.4436E-03  1.4086E-03  1.3556E-03  1.2890E-03  1.2132E-03  1.1323E-03  1.0503E-03  9.7354E-04
       9.1309E-04  8.6986E-04  8.3989E-04  8.1915E-04  8.0479E-04  7.9495E-04  7.8845E-04  7.8456E-04  7.8273E-04  7.8224E-04
       7.8187E-04  7.7995E-04  7.7567E-04  7.6909E-04  7.6075E-04
   9   9.8933E-04  1.0107E-03  1.0383E-03  1.0728E-03  1.1147E-03  1.1640E-03  1.2195E-03  1.2774E-03  1.3318E-03  1.3757E-03
       1.4028E-03  1.4089E-03  1.3926E-03  1.3552E-03  1.3005E-03  1.2335E-03  1.1597E-03  1.0843E-03  1.0117E-03  9.4715E-04
       8.9639E-04  8.5978E-04  8.3430E-04  8.1667E-04  8.0431E-04  7.9550E-04  7.8914E-04  7.8460E-04  7.8139E-04  7.7889E-04
       7.7617E-04  7.7222E-04  7.6655E-04  7.5922E-04  7.5064E-04
  10   9.4285E-04  9.6021E-04  9.8483E-04  1.0176E-03  1.0591E-03  1.1093E-03  1.1667E-03  1.2272E-03  1.2841E-03  1.3297E-03
       1.3570E-03  1.3621E-03  1.3438E-03  1.3045E-03  1.2485E-03  1.1818E-03  1.1108E-03  1.0417E-03  9.7885E-04  9.2474E-04
       8.8216E-04  8.5115E-04  8.2950E-04  8.1448E-04  8.0379E-04  7.9573E-04  7.8927E-04  7.8384E-04  7.7910E-04  7.7460E-04
       7.6975E-04  7.6399E-04  7.5705E-04  7.4901E-04  7.4018E-04
  11   8.9836E-04  9.1202E-04  9.3377E-04  9.6478E-04  1.0057E-03  1.0566E-03  1.1160E-03  1.1795E-03  1.2396E-03  1.2872E-03
       1.3150E-03  1.3192E-03  1.2994E-03  1.2587E-03  1.2022E-03  1.1367E-03  1.0691E-03  1.0061E-03  9.5186E-04  9.0590E-04
       8.6957E-04  8.4298E-04  8.2444E-04  8.1161E-04  8.0233E-04  7.9488E-04  7.8821E-04  7.8183E-04  7.7557E-04  7.6923E-04
       7.6253E-04  7.5521E-04  7.4716E-04  7.3849E-04  7.2943E-04
  12   8.5662E-04  8.6694E-04  8.8610E-04  9.1539E-04  9.5564E-04  1.0071E-03  1.0685E-03  1.1355E-03  1.1993E-03  1.2493E-03
       1.2778E-03  1.2813E-03  1.2606E-03  1.2194E-03  1.1634E-03  1.1000E-03  1.0363E-03  9.7846E-04  9.3087E-04  8.9005E-04
       8.5783E-04  8.3438E-04  8.1821E-04  8.0721E-04  7.9921E-04  7.9237E-04  7.8552E-04  7.7826E-04  7.7064E-04  7.6271E-04
       7.5446E-04  7.4584E-04  7.3687E-04  7.2766E-04  7.1841E-04
  13   8.1821E-04  8.2565E-04  8.4257E-04  8.7036E-04  9.0988E-04  9.6166E-04  1.0251E-03  1.0960E-03  1.1641E-03  1.2166E-03
       1.2455E-03  1.2486E-03  1.2275E-03  1.1867E-03  1.1324E-03  1.0720E-03  1.0129E-03  9.6077E-04  9.1513E-04  8.7616E-04
       8.4614E-04  8.2469E-04  8.1023E-04  8.0069E-04  7.9391E-04  7.8782E-04  7.8094E-04  7.7299E-04  7.6424E-04  7.5501E-04
       7.4550E-04  7.3585E-04  7.2614E-04  7.1651E-04  7.0711E-04
  14   7.8355E-04  7.8862E-04  8.0377E-04  8.3041E-04  8.6934E-04  9.2126E-04  9.8639E-04  1.0615E-03  1.1341E-03  1.1886E-03
       1.2175E-03  1.2202E-03  1.1994E-03  1.1598E-03  1.1080E-03  1.0512E-03  9.9648E-04  9.4765E-04  9.0119E-04  8.6284E-04
       8.3396E-04  8.1371E-04  8.0034E-04  7.9188E-04  7.8623E-04  7.8107E-04  7.7440E-04  7.6598E-04  7.5636E-04  7.4612E-04
       7.3565E-04  7.2520E-04  7.1494E-04  7.0501E-04  6.9553E-04
  15   7.5289E-04  7.5613E-04  7.7009E-04  7.9611E-04  8.3485E-04  8.8688E-04  9.5306E-04  1.0321E-03  1.1089E-03  1.1639E-03
       1.1922E-03  1.1946E-03  1.1746E-03  1.1371E-03  1.0883E-03  1.0346E-03  9.8169E-04  9.3263E-04  8.8693E-04  8.4938E-04
       8.2135E-04  8.0178E-04  7.8897E-04  7.8110E-04  7.7633E-04  7.7225E-04  7.6600E-04  7.5733E-04  7.4709E-04  7.3609E-04
       7.2491E-04  7.1389E-04  7.0325E-04  6.9314E-04  6.8366E-04
  16   7.2635E-04  7.2830E-04  7.4167E-04  7.6779E-04  8.0706E-04  8.5968E-04  9.2608E-04  1.0078E-03  1.0863E-03  1.1400E-03
       1.1674E-03  1.1698E-03  1.1511E-03  1.1164E-03  1.0711E-03  1.0200E-03  9.6731E-04  9.1748E-04  8.7267E-04  8.3625E-04
       8.0898E-04  7.8980E-04  7.7710E-04  7.6926E-04  7.6477E-04  7.6168E-04  7.5598E-04  7.4721E-04  7.3652E-04  7.2499E-04
       7.1331E-04  7.0191E-04  6.9106E-04  6.8089E-04  6.7148E-04
  17   7.0393E-04  7.0504E-04  7.1841E-04  7.4535E-04  7.8607E-04  8.4035E-04  9.0809E-04  9.8730E-04  1.0621E-03  1.1149E-03
       1.1416E-03  1.1443E-03  1.1271E-03  1.0955E-03  1.0544E-03  1.0069E-03  9.5429E-04  9.0394E-04  8.5991E-04  8.2451E-04
       7.9783E-04  7.7879E-04  7.6593E-04  7.5771E-04  7.5273E-04  7.4980E-04  7.4471E-04  7.3580E-04  7.2480E-04  7.1290E-04
       7.0090E-04  6.8929E-04  6.7836E-04  6.6824E-04  6.5901E-04
  18   6.8554E-04  6.8616E-04  6.9998E-04  7.2836E-04  7.7119E-04  8.2750E-04  8.9551E-04  9.7047E-04  1.0397E-03  1.0894E-03
       1.1147E-03  1.1172E-03  1.1012E-03  1.0725E-03  1.0360E-03  9.9408E-04  9.4492E-04  8.9342E-04  8.4977E-04  8.1481E-04
       7.8836E-04  7.6931E-04  7.5622E-04  7.4760E-04  7.4208E-04  7.3803E-04  7.3238E-04  7.2333E-04  7.1208E-04  6.9993E-04
       6.8775E-04  6.7606E-04  6.6517E-04  6.5523E-04  6.4627E-04
  19   6.7107E-04  6.7139E-04  6.8594E-04  7.1615E-04  7.6151E-04  8.1982E-04  8.8733E-04  9.5769E-04  1.0205E-03  1.0654E-03
       1.0877E-03  1.0887E-03  1.0729E-03  1.0461E-03  1.0135E-03  9.7711E-04  9.3494E-04  8.8540E-04  8.4147E-04  8.0643E-04
       7.8000E-04  7.6091E-04  7.4763E-04  7.3860E-04  7.3230E-04  7.2683E-04  7.1981E-04  7.1013E-04  6.9854E-04  6.8619E-04
       6.7392E-04  6.6227E-04  6.5155E-04  6.4187E-04  6.3328E-04
  20   6.6045E-04  6.6050E-04  6.7586E-04  7.0813E-04  7.5629E-04  8.1663E-04  8.8334E-04  9.4907E-04  1.0052E-03  1.0439E-03
       1.0617E-03  1.0599E-03  1.0428E-03  1.0164E-03  9.8592E-04  9.5398E-04  9.1775E-04  8.7354E-04  8.3149E-04  7.9718E-04
       7.7116E-04  7.5225E-04  7.3891E-04  7.2949E-04  7.2225E-04  7.1531E-04  7.0685E-04  6.9630E-04  6.8428E-04  6.7175E-04
       6.5948E-04  6.4799E-04  6.3753E-04  6.2823E-04  6.2008E-04
  21   6.5375E-04  6.5341E-04  6.6945E-04  7.0379E-04  7.5506E-04  8.1761E-04  8.8340E-04  9.4446E-04  9.9362E-04  1.0254E-03
       1.0376E-03  1.0317E-03  1.0120E-03  9.8426E-04  9.5403E-04  9.2461E-04  8.9374E-04  8.5530E-04  8.1701E-04  7.8482E-04
       7.5999E-04  7.4171E-04  7.2855E-04  7.1887E-04  7.1087E-04  7.0273E-04  6.9308E-04  6.8173E-04  6.6931E-04  6.5667E-04
       6.4451E-04  6.3328E-04  6.2320E-04  6.1436E-04  6.0675E-04
  22   6.5118E-04  6.5027E-04  6.6661E-04  7.0283E-04  7.5749E-04  8.2253E-04  8.8722E-04  9.4340E-04  9.8555E-04  1.0101E-03
       1.0162E-03  1.0055E-03  9.8230E-04  9.5198E-04  9.2000E-04  8.9052E-04  8.6364E-04  8.3060E-04  7.9715E-04  7.6818E-04
       7.4526E-04  7.2802E-04  7.1532E-04  7.0569E-04  6.9734E-04  6.8853E-04  6.7814E-04  6.6624E-04  6.5359E-04  6.4100E-04
       6.2908E-04  6.1823E-04  6.0863E-04  6.0035E-04  5.9335E-04
  23   6.5320E-04  6.5156E-04  6.6765E-04  7.0510E-04  7.6335E-04  8.3103E-04  8.9412E-04  9.4513E-04  9.8041E-04  9.9806E-04
       9.9806E-04  9.8256E-04  9.5558E-04  9.2212E-04  8.8726E-04  8.5511E-04  8.2821E-04  8.0128E-04  7.7297E-04  7.4759E-04
       7.2681E-04  7.1073E-04  6.9864E-04  6.8932E-04  6.8117E-04  6.7237E-04  6.6177E-04  6.4971E-04  6.3712E-04  6.2479E-04
       6.1329E-04  6.0295E-04  5.9394E-04  5.8629E-04  5.7997E-04
  24   6.6045E-04  6.5818E-04  6.7347E-04  7.1088E-04  7.7235E-04  8.4234E-04  9.0288E-04  9.4859E-04  9.7761E-04  9.8912E-04
       9.8376E-04  9.6391E-04  9.3345E-04  8.9710E-04  8.5959E-04  8.2496E-04  7.9546E-04  7.7131E-04  7.4705E-04  7.2458E-04
       7.0553E-04  6.9033E-04  6.7868E-04  6.6975E-04  6.6220E-04  6.5411E-04  6.4387E-04  6.3212E-04  6.1997E-04  6.0819E-04
       5.9729E-04  5.8759E-04  5.7924E-04  5.7229E-04  5.6669E-04
  25   6.7362E-04  6.7130E-04  6.8584E-04  7.2159E-04  7.8394E-04  8.5487E-04  9.1176E-04  9.5284E-04  9.7681E-04  9.8343E-04
       9.7376E-04  9.5036E-04  9.1704E-04  8.7830E-04  8.3868E-04  8.0206E-04  7.7096E-04  7.4563E-04  7.2249E-04  7.0133E-04
       6.8305E-04  6.6809E-04  6.5639E-04  6.4752E-04  6.4062E-04  6.3384E-04  6.2448E-04  6.1362E-04  6.0236E-04  5.9142E-04
       5.8129E-04  5.7231E-04  5.6468E-04  5.5847E-04  5.5364E-04
  26   6.9316E-04  6.9182E-04  7.0668E-04  7.4198E-04  7.9940E-04  8.6533E-04  9.1989E-04  9.5785E-04  9.7827E-04  9.8137E-04
       9.6854E-04  9.4248E-04  9.0694E-04  8.6628E-04  8.2485E-04  7.8636E-04  7.5318E-04  7.2551E-04  7.0136E-04  6.7990E-04
       6.6133E-04  6.4584E-04  6.3344E-04  6.2395E-04  6.1708E-04  6.1180E-04  6.0389E-04  5.9461E-04  5.8470E-04  5.7484E-04
       5.6558E-04  5.5735E-04  5.5044E-04  5.4497E-04  5.4092E-04
  27   7.1905E-04  7.1960E-04  7.3534E-04  7.6936E-04  8.2091E-04  8.7947E-04  9.2990E-04  9.6502E-04  9.8287E-04  9.8357E-04
       9.6861E-04  9.4067E-04  9.0344E-04  8.6114E-04  8.1794E-04  7.7735E-04  7.4160E-04  7.1111E-04  6.8482E-04  6.6194E-04
       6.4222E-04  6.2560E-04  6.1200E-04  6.0127E-04  5.9331E-04  5.8810E-04  5.8303E-04  5.7594E-04  5.6764E-04  5.5892E-04
       5.5050E-04  5.4297E-04  5.3671E-04  5.3194E-04  5.2865E-04
  28   7.5083E-04  7.5393E-04  7.7057E-04  8.0266E-04  8.4829E-04  8.9926E-04  9.4430E-04  9.7611E-04  9.9173E-04  9.9075E-04
       9.7439E-04  9.4519E-04  9.0664E-04  8.6280E-04  8.1770E-04  7.7471E-04  7.3605E-04  7.0246E-04  6.7351E-04  6.4858E-04
       6.2724E-04  6.0923E-04  5.9432E-04  5.8237E-04  5.7335E-04  5.6730E-04  5.6403E-04  5.5894E-04  5.5205E-04  5.4426E-04
       5.3647E-04  5.2944E-04  5.2370E-04  5.1954E-04  5.1697E-04
  29   7.8779E-04  7.9385E-04  8.1136E-04  8.4124E-04  8.8122E-04  9.2500E-04  9.6421E-04  9.9230E-04  1.0057E-03  1.0035E-03
       9.8621E-04  9.5615E-04  9.1652E-04  8.7114E-04  8.2392E-04  7.7823E-04  7.3642E-04  6.9957E-04  6.6774E-04  6.4051E-04
       6.1741E-04  5.9799E-04  5.8196E-04  5.6914E-04  5.5955E-04  5.5329E-04  5.4962E-04  5.4510E-04  5.3883E-04  5.3144E-04
       5.2387E-04  5.1704E-04  5.1160E-04  5.0792E-04  5.0601E-04
  30   8.2904E-04  8.3839E-04  8.5682E-04  8.8446E-04  9.1916E-04  9.5629E-04  9.8974E-04  1.0140E-03  1.0253E-03  1.0219E-03
       1.0041E-03  9.7349E-04  9.3291E-04  8.8596E-04  8.3642E-04  7.8775E-04  7.4256E-04  7.0235E-04  6.6758E-04  6.3802E-04
       6.1318E-04  5.9250E-04  5.7557E-04  5.6213E-04  5.5208E-04  5.4522E-04  5.4041E-04  5.3524E-04  5.2864E-04  5.2094E-04
       5.1307E-04  5.0604E-04  5.0063E-04  4.9724E-04  4.9590E-04
  31   8.7358E-04  8.8652E-04  9.0602E-04  9.3157E-04  9.6134E-04  9.9231E-04  1.0203E-03  1.0409E-03  1.0502E-03  1.0460E-03
       1.0279E-03  9.9691E-04  9.5551E-04  9.0695E-04  8.5492E-04  8.0301E-04  7.5421E-04  7.1054E-04  6.7282E-04  6.4100E-04
       6.1454E-04  5.9275E-04  5.7506E-04  5.6105E-04  5.5038E-04  5.4250E-04  5.3615E-04  5.2957E-04  5.2181E-04  5.1309E-04
       5.0434E-04  4.9666E-04  4.9094E-04  4.8766E-04  4.8678E-04
  32   9.2020E-04  9.3700E-04  9.5785E-04  9.8159E-04  1.0067E-03  1.0319E-03  1.0550E-03  1.0723E-03  1.0798E-03  1.0750E-03
       1.0568E-03  1.0258E-03  9.8373E-04  9.3362E-04  8.7899E-04  8.2361E-04  7.7097E-04  7.2369E-04  6.8303E-04  6.4905E-04
       6.2109E-04  5.9831E-04  5.7992E-04  5.6526E-04  5.5373E-04  5.4452E-04  5.3639E-04  5.2794E-04  5.1842E-04  5.0805E-04
       4.9783E-04  4.8904E-04  4.8271E-04  4.7933E-04  4.7880E-04
  33   9.6751E-04  9.8833E-04  1.0109E-03  1.0332E-03  1.0539E-03  1.0738E-03  1.0926E-03  1.1071E-03  1.1132E-03  1.1080E-03
       1.0900E-03  1.0591E-03  1.0166E-03  9.6517E-04  9.0797E-04  8.4895E-04  7.9220E-04  7.4114E-04  6.9754E-04  6.6150E-04
       6.3219E-04  6.0849E-04  5.8938E-04  5.7395E-04  5.6136E-04  5.5063E-04  5.4056E-04  5.2999E-04  5.1834E-04  5.0584E-04
       4.9364E-04  4.8331E-04  4.7606E-04  4.7240E-04  4.7212E-04
  34   1.0139E-03  1.0387E-03  1.0631E-03  1.0847E-03  1.1014E-03  1.1163E-03  1.1317E-03  1.1439E-03  1.1489E-03  1.1434E-03
       1.1257E-03  1.0953E-03  1.0528E-03  1.0004E-03  9.4085E-04  8.7815E-04  8.1702E-04  7.6199E-04  7.1547E-04  6.7752E-04
       6.4698E-04  6.2242E-04  6.0254E-04  5.8622E-04  5.7242E-04  5.6006E-04  5.4800E-04  5.3525E-04  5.2128E-04  5.0637E-04
       4.9177E-04  4.7952E-04  4.7113E-04  4.6705E-04  4.6688E-04
  35   1.0578E-03  1.0859E-03  1.1121E-03  1.1337E-03  1.1474E-03  1.1582E-03  1.1710E-03  1.1812E-03  1.1851E-03  1.1794E-03
       1.1621E-03  1.1324E-03  1.0904E-03  1.0375E-03  9.7619E-04  9.1003E-04  8.4431E-04  7.8514E-04  7.3581E-04  6.9615E-04
       6.6451E-04  6.3911E-04  6.1840E-04  6.0107E-04  5.8596E-04  5.7193E-04  5.5791E-04  5.4302E-04  5.2680E-04  5.0942E-04
       4.9216E-04  4.7774E-04  4.6806E-04  4.6345E-04  4.6329E-04
  36   1.0975E-03  1.1281E-03  1.1553E-03  1.1764E-03  1.1895E-03  1.1989E-03  1.2089E-03  1.2170E-03  1.2196E-03  1.2136E-03
       1.1967E-03  1.1678E-03  1.1267E-03  1.0741E-03  1.0120E-03  9.4303E-04  8.7270E-04  8.0936E-04  7.5750E-04  7.1639E-04
       6.8378E-04  6.5753E-04  6.3590E-04  6.1746E-04  6.0094E-04  5.8523E-04  5.6932E-04  5.5244E-04  5.3420E-04  5.1461E-04
       4.9469E-04  4.7800E-04  4.6705E-04  4.6183E-04  4.6151E-04
  37   1.1319E-03  1.1639E-03  1.1915E-03  1.2122E-03  1.2256E-03  1.2347E-03  1.2428E-03  1.2489E-03  1.2501E-03  1.2435E-03
       1.2269E-03  1.1988E-03  1.1588E-03  1.1072E-03  1.0453E-03  9.7505E-04  9.0067E-04  8.3342E-04  7.7959E-04  7.3734E-04
       7.0380E-04  6.7663E-04  6.5397E-04  6.3429E-04  6.1631E-04  5.9892E-04  5.8120E-04  5.6249E-04  5.4247E-04  5.2123E-04
       4.9920E-04  4.8041E-04  4.6834E-04  4.6241E-04  4.6171E-04
  38   1.1604E-03  1.1927E-03  1.2201E-03  1.2405E-03  1.2542E-03  1.2634E-03  1.2703E-03  1.2746E-03  1.2742E-03  1.2668E-03
       1.2501E-03  1.2226E-03  1.1837E-03  1.1335E-03  1.0727E-03  1.0030E-03  9.2662E-04  8.5638E-04  8.0146E-04  7.5822E-04
       7.2368E-04  6.9544E-04  6.7158E-04  6.5053E-04  6.3103E-04  6.1199E-04  5.9258E-04  5.7220E-04  5.5059E-04  5.2786E-04
       5.0500E-04  4.8536E-04  4.7214E-04  4.6532E-04  4.6397E-04
  39   1.1825E-03  1.2140E-03  1.2406E-03  1.2607E-03  1.2744E-03  1.2835E-03  1.2895E-03  1.2923E-03  1.2903E-03  1.2817E-03
       1.2645E-03  1.2372E-03  1.1991E-03  1.1501E-03  1.0906E-03  1.0220E-03  9.4776E-04  8.7851E-04  8.2257E-04  7.7826E-04
       7.4258E-04  7.1308E-04  6.8784E-04  6.6532E-04  6.4427E-04  6.2367E-04  6.0275E-04  5.8099E-04  5.5820E-04  5.3470E-04
       5.1174E-04  4.9208E-04  4.7821E-04  4.7052E-04  4.6827E-04
  40   1.1983E-03  1.2281E-03  1.2532E-03  1.2726E-03  1.2861E-03  1.2950E-03  1.3001E-03  1.3013E-03  1.2976E-03  1.2875E-03
       1.2693E-03  1.2418E-03  1.2042E-03  1.1563E-03  1.0986E-03  1.0328E-03  9.6281E-04  8.9699E-04  8.4163E-04  7.9664E-04
       7.5980E-04  7.2890E-04  7.0215E-04  6.7808E-04  6.5550E-04  6.3349E-04  6.1134E-04  5.8864E-04  5.6532E-04  5.4182E-04
       5.1943E-04  5.0030E-04  4.8626E-04  4.7782E-04  4.7446E-04



            MULT. ARRAY: HK_Par1_M2
 READING ON UNIT    8 WITH FORMAT: (FREE)              

            1           2           3           4           5           6           7           8           9          10
           11          12          13          14          15          16          17          18          19          20
           21          22          23          24          25          26          27          28          29          30
           31          32          33          34          35
 ........................................................................................................................
   1   4.3835E-05  4.3444E-05  4.3045E-05  4.2635E-05  4.2185E-05  4.1649E-05  4.0984E-05  4.0182E-05  3.9260E-05  3.8253E-05
       3.7197E-05  3.6129E-05  3.5085E-05  3.4099E-05  3.3202E-05  3.2430E-05  3.1820E-05  3.1412E-05  3.1249E-05  3.1363E-05
       3.1743E-05  3.2328E-05  3.3040E-05  3.3805E-05  3.4558E-05  3.5236E-05  3.5779E-05  3.6134E-05  3.6266E-05  3.6177E-05
       3.5927E-05  3.5626E-05  3.5382E-05  3.5253E-05  3.5246E-05
   2   4.4832E-05  4.4476E-05  4.4123E-05  4.3774E-05  4.3400E-05  4.2930E-05  4.2302E-05  4.1507E-05  4.0572E-05  3.9540E-05
       3.8454E-05  3.7353E-05  3.6274E-05  3.5250E-05  3.4312E-05  3.3492E-05  3.2825E-05  3.2358E-05  3.2149E-05  3.2255E-05
       3.2684E-05  3.3344E-05  3.4130E-05  3.4961E-05  3.5772E-05  3.6493E-05  3.7058E-05  3.7403E-05  3.7479E-05  3.7277E-05
       3.6869E-05  3.6413E-05  3.6055E-05  3.5857E-05  3.5816E-05
   3   4.5924E-05  4.5616E-05  4.5319E-05  4.5044E-05  4.4764E-05  4.4382E-05  4.3804E-05  4.3029E-05  4.2101E-05  4.1068E-05
       3.9981E-05  3.8882E-05  3.7807E-05  3.6786E-05  3.5846E-05  3.5011E-05  3.4309E-05  3.3783E-05  3.3502E-05  3.3567E-05
       3.4030E-05  3.4739E-05  3.5561E-05  3.6418E-05  3.7249E-05  3.7984E-05  3.8549E-05  3.8868E-05  3.8878E-05  3.8549E-05
       3.7952E-05  3.7314E-05  3.6831E-05  3.6556E-05  3.6469E-05
   4   4.7120E-05  4.6878E-05  4.6649E-05  4.6455E-05  4.6289E-05  4.6014E-05  4.5496E-05  4.4757E-05  4.3857E-05  4.2856E-05
       4.1807E-05  4.0755E-05  3.9737E-05  3.8778E-05  3.7897E-05  3.7107E-05  3.6421E-05  3.5866E-05  3.5504E-05  3.5472E-05
       3.5941E-05  3.6630E-05  3.7406E-05  3.8219E-05  3.9015E-05  3.9722E-05  4.0255E-05  4.0527E-05  4.0463E-05  4.0007E-05
       3.9193E-05  3.8348E-05  3.7732E-05  3.7369E-05  3.7217E-05
   5   4.8425E-05  4.8271E-05  4.8132E-05  4.8027E-05  4.7984E-05  4.7820E-05  4.7365E-05  4.6684E-05  4.5844E-05  4.4912E-05
       4.3947E-05  4.2999E-05  4.2105E-05  4.1286E-05  4.0552E-05  3.9902E-05  3.9329E-05  3.8834E-05  3.8442E-05  3.8250E-05
       3.8637E-05  3.9137E-05  3.9724E-05  4.0388E-05  4.1075E-05  4.1700E-05  4.2161E-05  4.2356E-05  4.2200E-05  4.1632E-05
       4.0614E-05  3.9540E-05  3.8786E-05  3.8311E-05  3.8070E-05
   6   4.9837E-05  4.9800E-05  4.9780E-05  4.9796E-05  4.9839E-05  4.9748E-05  4.9388E-05  4.8797E-05  4.8051E-05  4.7229E-05
       4.6401E-05  4.5623E-05  4.4932E-05  4.4350E-05  4.3878E-05  4.3497E-05  4.3176E-05  4.2888E-05  4.2627E-05  4.2427E-05
       4.2316E-05  4.2321E-05  4.2525E-05  4.2913E-05  4.3406E-05  4.3889E-05  4.4232E-05  4.4311E-05  4.4023E-05  4.3299E-05
       4.2166E-05  4.0943E-05  4.0008E-05  3.9385E-05  3.9025E-05
   7   5.1345E-05  5.1451E-05  5.1571E-05  5.1712E-05  5.1837E-05  5.1819E-05  5.1559E-05  5.1078E-05  5.0456E-05  4.9785E-05
       4.9148E-05  4.8608E-05  4.8210E-05  4.7973E-05  4.7891E-05  4.7924E-05  4.8005E-05  4.8051E-05  4.8000E-05  4.7744E-05
       4.6821E-05  4.6084E-05  4.5729E-05  4.5723E-05  4.5946E-05  4.6235E-05  4.6420E-05  4.6346E-05  4.5897E-05  4.5017E-05
       4.3776E-05  4.2451E-05  4.1355E-05  4.0572E-05  4.0069E-05
   8   5.2928E-05  5.3196E-05  5.3471E-05  5.3742E-05  5.3959E-05  5.4022E-05  5.3863E-05  5.3502E-05  5.3025E-05  5.2538E-05
       5.2139E-05  5.1905E-05  5.1884E-05  5.2097E-05  5.2526E-05  5.3102E-05  5.3684E-05  5.4061E-05  5.4001E-05  5.3248E-05
       5.1651E-05  5.0141E-05  4.9148E-05  4.8683E-05  4.8592E-05  4.8660E-05  4.8666E-05  4.8423E-05  4.7804E-05  4.6773E-05
       4.5426E-05  4.4008E-05  4.2773E-05  4.1831E-05  4.1175E-05
   9   5.4557E-05  5.5004E-05  5.5444E-05  5.5855E-05  5.6178E-05  5.6334E-05  5.6275E-05  5.6032E-05  5.5703E-05  5.5419E-05
       5.5295E-05  5.5420E-05  5.5844E-05  5.6585E-05  5.7608E-05  5.8801E-05  5.9909E-05  6.0512E-05  6.0169E-05  5.8704E-05
       5.6383E-05  5.4140E-05  5.2523E-05  5.1603E-05  5.1204E-05  5.1062E-05  5.0902E-05  5.0497E-05  4.9716E-05  4.8542E-05
       4.7090E-05  4.5575E-05  4.4214E-05  4.3123E-05  4.2313E-05
  10   5.6200E-05  5.6834E-05  5.7450E-05  5.8012E-05  5.8457E-05  5.8714E-05  5.8749E-05  5.8608E-05  5.8416E-05  5.8335E-05
       5.8505E-05  5.9019E-05  5.9924E-05  6.1219E-05  6.2841E-05  6.4621E-05  6.6190E-05  6.6882E-05  6.6014E-05  6.3714E-05
       6.0634E-05  5.7725E-05  5.5568E-05  5.4263E-05  5.3624E-05  5.3332E-05  5.3053E-05  5.2521E-05  5.1600E-05  5.0294E-05
       4.8732E-05  4.7116E-05  4.5636E-05  4.4406E-05  4.3446E-05
  11   5.7818E-05  5.8645E-05  5.9444E-05  6.0167E-05  6.0746E-05  6.1110E-05  6.1225E-05  6.1155E-05  6.1068E-05  6.1172E-05
       6.1632E-05  6.2538E-05  6.3912E-05  6.5713E-05  6.7819E-05  6.9993E-05  7.1810E-05  7.2463E-05  7.0901E-05  6.7776E-05
       6.4019E-05  6.0574E-05  5.8011E-05  5.6449E-05  5.5688E-05  5.5358E-05  5.5048E-05  5.4444E-05  5.3411E-05  5.1983E-05
       5.0311E-05  4.8591E-05  4.6998E-05  4.5639E-05  4.4541E-05
  12   5.9370E-05  6.0388E-05  6.1370E-05  6.2260E-05  6.2982E-05  6.3453E-05  6.3629E-05  6.3584E-05  6.3546E-05  6.3798E-05
       6.4526E-05  6.5799E-05  6.7586E-05  6.9769E-05  7.2114E-05  7.4272E-05  7.5839E-05  7.6286E-05  7.4062E-05  7.0408E-05
       6.6225E-05  6.2446E-05  5.9652E-05  5.7988E-05  5.7261E-05  5.7042E-05  5.6818E-05  5.6213E-05  5.5099E-05  5.3559E-05
       5.1777E-05  4.9954E-05  4.8256E-05  4.6783E-05  4.5563E-05
  13   6.0812E-05  6.2010E-05  6.3165E-05  6.4217E-05  6.5083E-05  6.5662E-05  6.5876E-05  6.5793E-05  6.5731E-05  6.6085E-05
       6.7052E-05  6.8645E-05  7.0758E-05  7.3154E-05  7.5426E-05  7.7034E-05  7.7542E-05  7.6984E-05  7.4981E-05  7.1384E-05
       6.7138E-05  6.3264E-05  6.0411E-05  5.8792E-05  5.8253E-05  5.8315E-05  5.8312E-05  5.7774E-05  5.6604E-05  5.4959E-05
       5.3070E-05  5.1153E-05  4.9366E-05  4.7799E-05  4.6479E-05
  14   6.2100E-05  6.3456E-05  6.4762E-05  6.5955E-05  6.6951E-05  6.7631E-05  6.7866E-05  6.7678E-05  6.7511E-05  6.7933E-05
       6.9109E-05  7.0968E-05  7.3314E-05  7.5774E-05  7.7736E-05  7.8446E-05  7.7529E-05  7.5671E-05  7.4133E-05  7.0985E-05
       6.6957E-05  6.3174E-05  6.0379E-05  5.8886E-05  5.8642E-05  5.9147E-05  5.9494E-05  5.9072E-05  5.7854E-05  5.6107E-05
       5.4125E-05  5.2134E-05  5.0283E-05  4.8650E-05  4.7259E-05
  15   6.3191E-05  6.4672E-05  6.6090E-05  6.7383E-05  6.8471E-05  6.9232E-05  6.9487E-05  6.9140E-05  6.8809E-05  6.9302E-05
       7.0661E-05  7.2726E-05  7.5228E-05  7.7684E-05  7.9313E-05  7.9204E-05  7.7207E-05  7.4826E-05  7.2941E-05  6.9962E-05
       6.6161E-05  6.2530E-05  5.9824E-05  5.8445E-05  5.8494E-05  5.9551E-05  6.0343E-05  6.0037E-05  5.8758E-05  5.6921E-05
       5.4873E-05  5.2843E-05  5.0964E-05  4.9304E-05  4.7879E-05
  16   6.4052E-05  6.5615E-05  6.7092E-05  6.8420E-05  6.9528E-05  7.0307E-05  7.0587E-05  7.0092E-05  6.9639E-05  7.0239E-05
       7.1729E-05  7.3925E-05  7.6528E-05  7.9004E-05  8.0488E-05  7.9953E-05  7.7288E-05  7.4563E-05  7.2158E-05  6.9027E-05
       6.5316E-05  6.1804E-05  5.9157E-05  5.7797E-05  5.7986E-05  5.9584E-05  6.0827E-05  6.0564E-05  5.9209E-05  5.7316E-05
       5.5252E-05  5.3234E-05  5.1378E-05  4.9737E-05  4.8318E-05
  17   6.4656E-05  6.6253E-05  6.7728E-05  6.9014E-05  7.0048E-05  7.0733E-05  7.0912E-05  7.0506E-05  7.0213E-05  7.0819E-05
       7.2339E-05  7.4580E-05  7.7239E-05  7.9802E-05  8.1439E-05  8.1070E-05  7.8159E-05  7.5138E-05  7.2118E-05  6.8638E-05
       6.4884E-05  6.1433E-05  5.8815E-05  5.7402E-05  5.7471E-05  5.9328E-05  6.0852E-05  6.0503E-05  5.9106E-05  5.7226E-05
       5.5218E-05  5.3278E-05  5.1505E-05  4.9935E-05  4.8569E-05
  18   6.4992E-05  6.6575E-05  6.7988E-05  6.9162E-05  7.0041E-05  7.0566E-05  7.0664E-05  7.0411E-05  7.0323E-05  7.0966E-05
       7.2460E-05  7.4674E-05  7.7343E-05  8.0026E-05  8.2035E-05  8.2447E-05  8.0312E-05  7.6605E-05  7.2860E-05  6.8946E-05
       6.5078E-05  6.1656E-05  5.9071E-05  5.7642E-05  5.7631E-05  5.8972E-05  6.0088E-05  5.9747E-05  5.8407E-05  5.6631E-05
       5.4761E-05  5.2972E-05  5.1344E-05  4.9899E-05  4.8632E-05
  19   6.5055E-05  6.6585E-05  6.7889E-05  6.8893E-05  6.9565E-05  6.9903E-05  6.9933E-05  6.9805E-05  6.9892E-05  7.0587E-05
       7.2034E-05  7.4168E-05  7.6786E-05  7.9537E-05  8.1880E-05  8.3033E-05  8.2098E-05  7.8292E-05  7.3978E-05  6.9734E-05
       6.5788E-05  6.2403E-05  5.9844E-05  5.8336E-05  5.8006E-05  5.8579E-05  5.8991E-05  5.8464E-05  5.7185E-05  5.5572E-05
       5.3909E-05  5.2338E-05  5.0912E-05  4.9642E-05  4.8518E-05
  20   6.4852E-05  6.6298E-05  6.7459E-05  6.8258E-05  6.8690E-05  6.8823E-05  6.8773E-05  6.8715E-05  6.8918E-05  6.9647E-05
       7.1027E-05  7.3034E-05  7.5520E-05  7.8217E-05  8.0692E-05  8.2256E-05  8.1895E-05  7.8824E-05  7.4667E-05  7.0467E-05
       6.6617E-05  6.3337E-05  6.0794E-05  5.9109E-05  5.8280E-05  5.8013E-05  5.7668E-05  5.6824E-05  5.5561E-05  5.4132E-05
       5.2722E-05  5.1419E-05  5.0245E-05  4.9194E-05  4.8248E-05
  21   6.4393E-05  6.5736E-05  6.6737E-05  6.7311E-05  6.7481E-05  6.7393E-05  6.7239E-05  6.7197E-05  6.7453E-05  6.8176E-05
       6.9457E-05  7.1286E-05  7.3556E-05  7.6057E-05  7.8431E-05  8.0088E-05  8.0121E-05  7.7852E-05  7.4334E-05  7.0575E-05
       6.7056E-05  6.3995E-05  6.1497E-05  5.9595E-05  5.8219E-05  5.7156E-05  5.6104E-05  5.4913E-05  5.3639E-05  5.2402E-05
       5.1276E-05  5.0278E-05  4.9392E-05  4.8591E-05  4.7852E-05
  22   6.3686E-05  6.4915E-05  6.5756E-05  6.6105E-05  6.5999E-05  6.5673E-05  6.5395E-05  6.5326E-05  6.5579E-05  6.6249E-05
       6.7391E-05  6.8997E-05  7.0980E-05  7.3167E-05  7.5259E-05  7.6783E-05  7.7064E-05  7.5479E-05  7.2765E-05  6.9683E-05
       6.6677E-05  6.3952E-05  6.1570E-05  5.9501E-05  5.7649E-05  5.5911E-05  5.4260E-05  5.2767E-05  5.1500E-05  5.0474E-05
       4.9653E-05  4.8984E-05  4.8409E-05  4.7879E-05  4.7365E-05
  23   6.2742E-05  6.3846E-05  6.4538E-05  6.4682E-05  6.4299E-05  6.3728E-05  6.3321E-05  6.3196E-05  6.3398E-05  6.3969E-05
       6.4935E-05  6.6281E-05  6.7932E-05  6.9738E-05  7.1447E-05  7.2687E-05  7.3002E-05  7.1997E-05  7.0054E-05  6.7688E-05
       6.5257E-05  6.2936E-05  6.0752E-05  5.8628E-05  5.6455E-05  5.4215E-05  5.2104E-05  5.0408E-05  4.9210E-05  4.8429E-05
       4.7935E-05  4.7609E-05  4.7356E-05  4.7107E-05  4.6825E-05
  24   6.1567E-05  6.2534E-05  6.3088E-05  6.3072E-05  6.2434E-05  6.1630E-05  6.1107E-05  6.0907E-05  6.1017E-05  6.1449E-05
       6.2208E-05  6.3275E-05  6.4579E-05  6.5991E-05  6.7302E-05  6.8224E-05  6.8441E-05  6.7841E-05  6.6494E-05  6.4729E-05
       6.2815E-05  6.0885E-05  5.8943E-05  5.6887E-05  5.4583E-05  5.2042E-05  4.9630E-05  4.7871E-05  4.6838E-05  4.6350E-05
       4.6200E-05  4.6222E-05  4.6291E-05  4.6321E-05  4.6267E-05
  25   6.0176E-05  6.0980E-05  6.1391E-05  6.1265E-05  6.0456E-05  5.9465E-05  5.8852E-05  5.8549E-05  5.8530E-05  5.8791E-05
       5.9326E-05  6.0109E-05  6.1080E-05  6.2125E-05  6.3076E-05  6.3720E-05  6.3861E-05  6.3426E-05  6.2446E-05  6.1097E-05
       5.9562E-05  5.7939E-05  5.6220E-05  5.4303E-05  5.2036E-05  4.9405E-05  4.6864E-05  4.5225E-05  4.4472E-05  4.4322E-05
       4.4525E-05  4.4889E-05  4.5270E-05  4.5567E-05  4.5730E-05
  26   5.8600E-05  5.9211E-05  5.9444E-05  5.9174E-05  5.8359E-05  5.7360E-05  5.6624E-05  5.6184E-05  5.6008E-05  5.6080E-05
       5.6386E-05  5.6901E-05  5.7567E-05  5.8292E-05  5.8942E-05  5.9358E-05  5.9409E-05  5.9031E-05  5.8240E-05  5.7134E-05
       5.5830E-05  5.4393E-05  5.2819E-05  5.1028E-05  4.8882E-05  4.6345E-05  4.3890E-05  4.2597E-05  4.2223E-05  4.2436E-05
       4.2983E-05  4.3669E-05  4.4339E-05  4.4883E-05  4.5242E-05
  27   5.6887E-05  5.7289E-05  5.7342E-05  5.6961E-05  5.6166E-05  5.5212E-05  5.4405E-05  5.3835E-05  5.3498E-05  5.3381E-05
       5.3469E-05  5.3739E-05  5.4142E-05  5.4602E-05  5.5012E-05  5.5250E-05  5.5213E-05  5.4843E-05  5.4140E-05  5.3161E-05
       5.1974E-05  5.0624E-05  4.9108E-05  4.7373E-05  4.5335E-05  4.2886E-05  4.0947E-05  4.0189E-05  4.0223E-05  4.0777E-05
       4.1635E-05  4.2609E-05  4.3539E-05  4.4301E-05  4.4831E-05
  28   5.5094E-05  5.5292E-05  5.5183E-05  5.4719E-05  5.3945E-05  5.3034E-05  5.2192E-05  5.1517E-05  5.1035E-05  5.0743E-05
       5.0634E-05  5.0691E-05  5.0875E-05  5.1125E-05  5.1354E-05  5.1463E-05  5.1360E-05  5.0988E-05  5.0335E-05  4.9427E-05
       4.8306E-05  4.7002E-05  4.5512E-05  4.3805E-05  4.1842E-05  3.9774E-05  3.8555E-05  3.8221E-05  3.8579E-05  3.9410E-05
       4.0526E-05  4.1746E-05  4.2899E-05  4.3847E-05  4.4516E-05
  29   5.3278E-05  5.3288E-05  5.3040E-05  5.2512E-05  5.1748E-05  5.0867E-05  5.0005E-05  4.9252E-05  4.8647E-05  4.8204E-05
       4.7926E-05  4.7804E-05  4.7812E-05  4.7902E-05  4.8004E-05  4.8030E-05  4.7897E-05  4.7541E-05  4.6937E-05  4.6095E-05
       4.5041E-05  4.3800E-05  4.2381E-05  4.0793E-05  3.9098E-05  3.7576E-05  3.6787E-05  3.6754E-05  3.7335E-05  3.8368E-05
       3.9684E-05  4.1103E-05  4.2438E-05  4.3535E-05  4.4310E-05
  30   5.1485E-05  5.1329E-05  5.0963E-05  5.0381E-05  4.9620E-05  4.8757E-05  4.7881E-05  4.7067E-05  4.6363E-05  4.5794E-05
       4.5376E-05  4.5109E-05  4.4980E-05  4.4954E-05  4.4974E-05  4.4963E-05  4.4837E-05  4.4527E-05  4.3996E-05  4.3243E-05
       4.2288E-05  4.1156E-05  3.9878E-05  3.8503E-05  3.7149E-05  3.6074E-05  3.5596E-05  3.5763E-05  3.6489E-05  3.7656E-05
       3.9117E-05  4.0690E-05  4.2168E-05  4.3374E-05  4.4216E-05
  31   4.9751E-05  4.9451E-05  4.8985E-05  4.8357E-05  4.7595E-05  4.6741E-05  4.5854E-05  4.4993E-05  4.4210E-05  4.3540E-05
       4.3008E-05  4.2626E-05  4.2392E-05  4.2286E-05  4.2262E-05  4.2252E-05  4.2170E-05  4.1939E-05  4.1513E-05  4.0882E-05
       4.0065E-05  3.9093E-05  3.8012E-05  3.6894E-05  3.5869E-05  3.5138E-05  3.4896E-05  3.5201E-05  3.6017E-05  3.7265E-05
       3.8825E-05  4.0510E-05  4.2088E-05  4.3363E-05  4.4235E-05
  32   4.8103E-05  4.7682E-05  4.7131E-05  4.6462E-05  4.5697E-05  4.4851E-05  4.3954E-05  4.3056E-05  4.2210E-05  4.1460E-05
       4.0839E-05  4.0367E-05  4.0054E-05  3.9893E-05  3.9854E-05  3.9874E-05  3.9868E-05  3.9748E-05  3.9456E-05  3.8979E-05
       3.8335E-05  3.7561E-05  3.6710E-05  3.5861E-05  3.5132E-05  3.4673E-05  3.4617E-05  3.5023E-05  3.5890E-05  3.7180E-05
       3.8798E-05  4.0557E-05  4.2195E-05  4.3494E-05  4.4354E-05
  33   4.6561E-05  4.6040E-05  4.5416E-05  4.4712E-05  4.3946E-05  4.3107E-05  4.2201E-05  4.1274E-05  4.0381E-05  3.9571E-05
       3.8881E-05  3.8339E-05  3.7966E-05  3.7769E-05  3.7731E-05  3.7803E-05  3.7898E-05  3.7912E-05  3.7779E-05  3.7479E-05
       3.7033E-05  3.6479E-05  3.5872E-05  3.5289E-05  3.4827E-05  3.4598E-05  3.4700E-05  3.5187E-05  3.6084E-05  3.7383E-05
       3.9024E-05  4.0821E-05  4.2475E-05  4.3748E-05  4.4555E-05
  34   4.5140E-05  4.4538E-05  4.3855E-05  4.3118E-05  4.2351E-05  4.1521E-05  4.0607E-05  3.9660E-05  3.8736E-05  3.7884E-05
       3.7143E-05  3.6549E-05  3.6129E-05  3.5904E-05  3.5875E-05  3.6010E-05  3.6222E-05  3.6388E-05  3.6426E-05  3.6317E-05
       3.6080E-05  3.5757E-05  3.5399E-05  3.5072E-05  3.4856E-05  3.4836E-05  3.5084E-05  3.5651E-05  3.6568E-05  3.7855E-05
       3.9485E-05  4.1286E-05  4.2902E-05  4.4095E-05  4.4809E-05
  35   4.3846E-05  4.3185E-05  4.2458E-05  4.1690E-05  4.0920E-05  4.0097E-05  3.9179E-05  3.8223E-05  3.7283E-05  3.6406E-05
       3.5632E-05  3.5000E-05  3.4544E-05  3.4295E-05  3.4273E-05  3.4470E-05  3.4807E-05  3.5133E-05  3.5347E-05  3.5429E-05
       3.5403E-05  3.5308E-05  3.5193E-05  3.5112E-05  3.5128E-05  3.5306E-05  3.5702E-05  3.6357E-05  3.7303E-05  3.8569E-05
       4.0159E-05  4.1925E-05  4.3436E-05  4.4491E-05  4.5077E-05
  36   4.2682E-05  4.1983E-05  4.1230E-05  4.0450E-05  3.9660E-05  3.8826E-05  3.7916E-05  3.6967E-05  3.6028E-05  3.5143E-05
       3.4353E-05  3.3697E-05  3.3215E-05  3.2943E-05  3.2920E-05  3.3164E-05  3.3625E-05  3.4110E-05  3.4492E-05  3.4755E-05
       3.4930E-05  3.5053E-05  3.5165E-05  3.5314E-05  3.5547E-05  3.5915E-05  3.6462E-05  3.7221E-05  3.8218E-05  3.9481E-05
       4.1012E-05  4.2684E-05  4.4003E-05  4.4871E-05  4.5315E-05
  37   4.1645E-05  4.0924E-05  4.0161E-05  3.9373E-05  3.8569E-05  3.7726E-05  3.6828E-05  3.5897E-05  3.4972E-05  3.4096E-05
       3.3307E-05  3.2645E-05  3.2149E-05  3.1861E-05  3.1825E-05  3.2089E-05  3.2656E-05  3.3290E-05  3.3820E-05  3.4245E-05
       3.4600E-05  3.4919E-05  3.5237E-05  3.5591E-05  3.6021E-05  3.6564E-05  3.7255E-05  3.8123E-05  3.9191E-05  4.0478E-05
       4.2003E-05  4.3436E-05  4.4492E-05  4.5163E-05  4.5476E-05
  38   4.0726E-05  3.9998E-05  3.9234E-05  3.8446E-05  3.7637E-05  3.6796E-05  3.5915E-05  3.5010E-05  3.4114E-05  3.3262E-05
       3.2492E-05  3.1842E-05  3.1351E-05  3.1060E-05  3.1016E-05  3.1271E-05  3.1888E-05  3.2651E-05  3.3296E-05  3.3856E-05
       3.4363E-05  3.4848E-05  3.5340E-05  3.5868E-05  3.6463E-05  3.7153E-05  3.7967E-05  3.8926E-05  4.0049E-05  4.1348E-05
       4.2765E-05  4.3930E-05  4.4784E-05  4.5306E-05  4.5527E-05
  39   3.9917E-05  3.9193E-05  3.8436E-05  3.7655E-05  3.6853E-05  3.6025E-05  3.5170E-05  3.4301E-05  3.3445E-05  3.2633E-05
       3.1900E-05  3.1281E-05  3.0815E-05  3.0544E-05  3.0516E-05  3.0786E-05  3.1383E-05  3.2163E-05  3.2894E-05  3.3557E-05
       3.4182E-05  3.4795E-05  3.5421E-05  3.6083E-05  3.6804E-05  3.7605E-05  3.8504E-05  3.9515E-05  4.0645E-05  4.1877E-05
       4.3111E-05  4.4120E-05  4.4844E-05  4.5278E-05  4.5454E-05
  40   3.9207E-05  3.8496E-05  3.7753E-05  3.6989E-05  3.6204E-05  3.5400E-05  3.4579E-05  3.3755E-05  3.2949E-05  3.2191E-05
       3.1511E-05  3.0942E-05  3.0522E-05  3.0289E-05  3.0290E-05  3.0568E-05  3.1128E-05  3.1862E-05  3.2612E-05  3.3332E-05
       3.4033E-05  3.4732E-05  3.5450E-05  3.6202E-05  3.7006E-05  3.7874E-05  3.8818E-05  3.9841E-05  4.0937E-05  4.2071E-05
       4.3152E-05  4.4047E-05  4.4694E-05  4.5091E-05  4.5263E-05



            MULT. ARRAY: HK_Par1_M3
 READING ON UNIT    8 WITH FORMAT: (FREE)              

            1           2           3           4           5           6           7           8           9          10
           11          12          13          14          15          16          17          18          19          20
           21          22          23          24          25          26          27          28          29          30
           31          32          33          34          35
 ........................................................................................................................
   1   9.0637E-05  9.0148E-05  8.9576E-05  8.8951E-05  8.8338E-05  8.7833E-05  8.7536E-05  8.7516E-05  8.7815E-05  8.8456E-05
       8.9445E-05  9.0778E-05  9.2429E-05  9.4358E-05  9.6501E-05  9.8773E-05  1.0107E-04  1.0328E-04  1.0530E-04  1.0704E-04
       1.0846E-04  1.0954E-04  1.1034E-04  1.1091E-04  1.1133E-04  1.1165E-04  1.1194E-04  1.1224E-04  1.1258E-04  1.1298E-04
       1.1342E-04  1.1382E-04  1.1415E-04  1.1437E-04  1.1449E-04
   2   9.0857E-05  9.0334E-05  8.9703E-05  8.8990E-05  8.8267E-05  8.7655E-05  8.7279E-05  8.7216E-05  8.7508E-05  8.8176E-05
       8.9230E-05  9.0664E-05  9.2454E-05  9.4553E-05  9.6890E-05  9.9369E-05  1.0187E-04  1.0426E-04  1.0641E-04  1.0823E-04
       1.0966E-04  1.1071E-04  1.1143E-04  1.1190E-04  1.1221E-04  1.1243E-04  1.1262E-04  1.1285E-04  1.1314E-04  1.1353E-04
       1.1399E-04  1.1442E-04  1.1473E-04  1.1492E-04  1.1500E-04
   3   9.1131E-05  9.0581E-05  8.9902E-05  8.9114E-05  8.8285E-05  8.7570E-05  8.7126E-05  8.7033E-05  8.7327E-05  8.8031E-05
       8.9157E-05  9.0700E-05  9.2637E-05  9.4915E-05  9.7456E-05  1.0015E-04  1.0286E-04  1.0542E-04  1.0771E-04  1.0958E-04
       1.1101E-04  1.1200E-04  1.1261E-04  1.1297E-04  1.1316E-04  1.1327E-04  1.1337E-04  1.1351E-04  1.1375E-04  1.1411E-04
       1.1460E-04  1.1505E-04  1.1534E-04  1.1549E-04  1.1551E-04
   4   9.1456E-05  9.0886E-05  9.0171E-05  8.9322E-05  8.8396E-05  8.7585E-05  8.7091E-05  8.6978E-05  8.7280E-05  8.8025E-05
       8.9229E-05  9.0890E-05  9.2982E-05  9.5450E-05  9.8204E-05  1.0112E-04  1.0404E-04  1.0679E-04  1.0919E-04  1.1111E-04
       1.1251E-04  1.1340E-04  1.1389E-04  1.1411E-04  1.1417E-04  1.1416E-04  1.1416E-04  1.1422E-04  1.1439E-04  1.1472E-04
       1.1523E-04  1.1570E-04  1.1596E-04  1.1605E-04  1.1602E-04
   5   9.1828E-05  9.1241E-05  9.0495E-05  8.9603E-05  8.8597E-05  8.7712E-05  8.7183E-05  8.7054E-05  8.7366E-05  8.8153E-05
       8.9438E-05  9.1221E-05  9.3477E-05  9.6144E-05  9.9123E-05  1.0227E-04  1.0542E-04  1.0835E-04  1.1087E-04  1.1282E-04
       1.1415E-04  1.1490E-04  1.1523E-04  1.1530E-04  1.1522E-04  1.1510E-04  1.1501E-04  1.1498E-04  1.1508E-04  1.1535E-04
       1.1586E-04  1.1634E-04  1.1655E-04  1.1658E-04  1.1650E-04
   6   9.2247E-05  9.1642E-05  9.0861E-05  8.9921E-05  8.8888E-05  8.7979E-05  8.7407E-05  8.7254E-05  8.7570E-05  8.8398E-05
       8.9764E-05  9.1674E-05  9.4100E-05  9.6976E-05  1.0019E-04  1.0358E-04  1.0695E-04  1.1007E-04  1.1272E-04  1.1470E-04
       1.1589E-04  1.1646E-04  1.1660E-04  1.1650E-04  1.1629E-04  1.1607E-04  1.1589E-04  1.1580E-04  1.1584E-04  1.1607E-04
       1.1649E-04  1.1689E-04  1.1708E-04  1.1708E-04  1.1695E-04
   7   9.2713E-05  9.2093E-05  9.1281E-05  9.0307E-05  8.9265E-05  8.8345E-05  8.7738E-05  8.7557E-05  8.7871E-05  8.8734E-05
       9.0181E-05  9.2219E-05  9.4820E-05  9.7911E-05  1.0136E-04  1.0500E-04  1.0859E-04  1.1188E-04  1.1462E-04  1.1658E-04
       1.1762E-04  1.1799E-04  1.1794E-04  1.1768E-04  1.1735E-04  1.1703E-04  1.1678E-04  1.1665E-04  1.1665E-04  1.1682E-04
       1.1713E-04  1.1743E-04  1.1756E-04  1.1753E-04  1.1737E-04
   8   9.3230E-05  9.2601E-05  9.1767E-05  9.0771E-05  8.9719E-05  8.8784E-05  8.8144E-05  8.7931E-05  8.8237E-05  8.9129E-05
       9.0652E-05  9.2817E-05  9.5596E-05  9.8905E-05  1.0260E-04  1.0647E-04  1.1025E-04  1.1367E-04  1.1643E-04  1.1830E-04
       1.1921E-04  1.1940E-04  1.1918E-04  1.1878E-04  1.1834E-04  1.1795E-04  1.1766E-04  1.1750E-04  1.1747E-04  1.1758E-04
       1.1778E-04  1.1797E-04  1.1803E-04  1.1795E-04  1.1775E-04
   9   9.3801E-05  9.3171E-05  9.2322E-05  9.1305E-05  9.0234E-05  8.9273E-05  8.8595E-05  8.8343E-05  8.8632E-05  8.9547E-05
       9.1140E-05  9.3429E-05  9.6382E-05  9.9908E-05  1.0384E-04  1.0793E-04  1.1188E-04  1.1536E-04  1.1807E-04  1.1982E-04
       1.2059E-04  1.2063E-04  1.2026E-04  1.1974E-04  1.1923E-04  1.1880E-04  1.1850E-04  1.1832E-04  1.1827E-04  1.1832E-04
       1.1843E-04  1.1851E-04  1.1850E-04  1.1836E-04  1.1811E-04
  10   9.4425E-05  9.3801E-05  9.2940E-05  9.1898E-05  9.0795E-05  8.9791E-05  8.9060E-05  8.8759E-05  8.9021E-05  8.9948E-05
       9.1604E-05  9.4010E-05  9.7134E-05  1.0087E-04  1.0503E-04  1.0933E-04  1.1341E-04  1.1690E-04  1.1952E-04  1.2111E-04
       1.2172E-04  1.2162E-04  1.2114E-04  1.2054E-04  1.1998E-04  1.1956E-04  1.1927E-04  1.1910E-04  1.1903E-04  1.1903E-04
       1.1906E-04  1.1905E-04  1.1895E-04  1.1875E-04  1.1845E-04
  11   9.5097E-05  9.4486E-05  9.3612E-05  9.2536E-05  9.1382E-05  9.0314E-05  8.9512E-05  8.9145E-05  8.9367E-05  9.0296E-05
       9.2005E-05  9.4520E-05  9.7804E-05  1.0175E-04  1.0613E-04  1.1063E-04  1.1481E-04  1.1826E-04  1.2076E-04  1.2216E-04
       1.2259E-04  1.2235E-04  1.2177E-04  1.2113E-04  1.2058E-04  1.2019E-04  1.1994E-04  1.1981E-04  1.1974E-04  1.1971E-04
       1.1966E-04  1.1956E-04  1.1939E-04  1.1911E-04  1.1875E-04
  12   9.5808E-05  9.5215E-05  9.4323E-05  9.3199E-05  9.1973E-05  9.0818E-05  8.9922E-05  8.9471E-05  8.9638E-05  9.0557E-05
       9.2311E-05  9.4923E-05  9.8355E-05  1.0249E-04  1.0709E-04  1.1179E-04  1.1608E-04  1.1947E-04  1.2179E-04  1.2295E-04
       1.2319E-04  1.2281E-04  1.2217E-04  1.2152E-04  1.2101E-04  1.2069E-04  1.2052E-04  1.2044E-04  1.2039E-04  1.2032E-04
       1.2022E-04  1.2004E-04  1.1979E-04  1.1944E-04  1.1901E-04
  13   9.6549E-05  9.5975E-05  9.5057E-05  9.3866E-05  9.2543E-05  9.1276E-05  9.0264E-05  8.9709E-05  8.9805E-05  9.0707E-05
       9.2498E-05  9.5196E-05  9.8757E-05  1.0306E-04  1.0787E-04  1.1278E-04  1.1721E-04  1.2057E-04  1.2261E-04  1.2350E-04
       1.2353E-04  1.2305E-04  1.2236E-04  1.2173E-04  1.2129E-04  1.2107E-04  1.2101E-04  1.2099E-04  1.2096E-04  1.2087E-04
       1.2071E-04  1.2047E-04  1.2014E-04  1.1972E-04  1.1922E-04
  14   9.7304E-05  9.6750E-05  9.5795E-05  9.4514E-05  9.3067E-05  9.1660E-05  9.0511E-05  8.9834E-05  8.9851E-05  9.0734E-05
       9.2558E-05  9.5330E-05  9.8996E-05  1.0343E-04  1.0841E-04  1.1350E-04  1.1808E-04  1.2141E-04  1.2317E-04  1.2380E-04
       1.2367E-04  1.2310E-04  1.2240E-04  1.2180E-04  1.2144E-04  1.2135E-04  1.2140E-04  1.2146E-04  1.2145E-04  1.2134E-04
       1.2113E-04  1.2082E-04  1.2042E-04  1.1993E-04  1.1937E-04
  15   9.8059E-05  9.7523E-05  9.6515E-05  9.5118E-05  9.3514E-05  9.1941E-05  9.0638E-05  8.9829E-05  8.9765E-05  9.0637E-05
       9.2501E-05  9.5338E-05  9.9082E-05  1.0360E-04  1.0867E-04  1.1388E-04  1.1854E-04  1.2175E-04  1.2337E-04  1.2386E-04
       1.2365E-04  1.2307E-04  1.2238E-04  1.2181E-04  1.2153E-04  1.2156E-04  1.2174E-04  1.2186E-04  1.2185E-04  1.2171E-04
       1.2145E-04  1.2108E-04  1.2062E-04  1.2007E-04  1.1945E-04
  16   9.8794E-05  9.8275E-05  9.7199E-05  9.5654E-05  9.3858E-05  9.2087E-05  9.0618E-05  8.9680E-05  8.9552E-05  9.0436E-05
       9.2348E-05  9.5250E-05  9.9049E-05  1.0359E-04  1.0865E-04  1.1387E-04  1.1854E-04  1.2164E-04  1.2322E-04  1.2375E-04
       1.2359E-04  1.2305E-04  1.2240E-04  1.2186E-04  1.2163E-04  1.2176E-04  1.2203E-04  1.2217E-04  1.2214E-04  1.2196E-04
       1.2165E-04  1.2123E-04  1.2071E-04  1.2011E-04  1.1944E-04
  17   9.9488E-05  9.8988E-05  9.7826E-05  9.6102E-05  9.4072E-05  9.2068E-05  9.0415E-05  8.9385E-05  8.9242E-05  9.0154E-05
       9.2134E-05  9.5114E-05  9.8962E-05  1.0348E-04  1.0842E-04  1.1345E-04  1.1807E-04  1.2112E-04  1.2288E-04  1.2362E-04
       1.2362E-04  1.2319E-04  1.2259E-04  1.2207E-04  1.2182E-04  1.2198E-04  1.2230E-04  1.2240E-04  1.2232E-04  1.2209E-04
       1.2172E-04  1.2125E-04  1.2069E-04  1.2004E-04  1.1933E-04
  18   1.0012E-04  9.9641E-05  9.8380E-05  9.6445E-05  9.4142E-05  9.1876E-05  9.0037E-05  8.8938E-05  8.8816E-05  8.9801E-05
       9.1888E-05  9.4980E-05  9.8904E-05  1.0340E-04  1.0816E-04  1.1281E-04  1.1703E-04  1.2038E-04  1.2256E-04  1.2365E-04
       1.2388E-04  1.2357E-04  1.2302E-04  1.2251E-04  1.2224E-04  1.2230E-04  1.2248E-04  1.2251E-04  1.2237E-04  1.2207E-04
       1.2166E-04  1.2114E-04  1.2054E-04  1.1986E-04  1.1913E-04
  19   1.0066E-04  1.0021E-04  9.8842E-05  9.6670E-05  9.4058E-05  9.1505E-05  8.9484E-05  8.8338E-05  8.8277E-05  8.9385E-05
       9.1632E-05  9.4894E-05  9.8954E-05  1.0350E-04  1.0812E-04  1.1243E-04  1.1625E-04  1.1994E-04  1.2258E-04  1.2401E-04
       1.2445E-04  1.2423E-04  1.2370E-04  1.2315E-04  1.2278E-04  1.2266E-04  1.2264E-04  1.2253E-04  1.2228E-04  1.2191E-04
       1.2145E-04  1.2089E-04  1.2026E-04  1.1956E-04  1.1881E-04
  20   1.0106E-04  1.0066E-04  9.9193E-05  9.6767E-05  9.3812E-05  9.0951E-05  8.8756E-05  8.7594E-05  8.7637E-05  8.8920E-05
       9.1384E-05  9.4878E-05  9.9157E-05  1.0386E-04  1.0851E-04  1.1271E-04  1.1648E-04  1.2024E-04  1.2315E-04  1.2480E-04
       1.2534E-04  1.2513E-04  1.2456E-04  1.2390E-04  1.2336E-04  1.2300E-04  1.2274E-04  1.2244E-04  1.2206E-04  1.2161E-04
       1.2108E-04  1.2050E-04  1.1985E-04  1.1914E-04  1.1839E-04
  21   1.0128E-04  1.0095E-04  9.9405E-05  9.6725E-05  9.3401E-05  9.0214E-05  8.7866E-05  8.6729E-05  8.6921E-05  8.8424E-05
       9.1149E-05  9.4932E-05  9.9508E-05  1.0449E-04  1.0938E-04  1.1371E-04  1.1752E-04  1.2133E-04  1.2430E-04  1.2597E-04
       1.2647E-04  1.2619E-04  1.2549E-04  1.2466E-04  1.2390E-04  1.2327E-04  1.2274E-04  1.2223E-04  1.2171E-04  1.2116E-04
       1.2058E-04  1.1996E-04  1.1931E-04  1.1861E-04  1.1786E-04
  22   1.0126E-04  1.0102E-04  9.9437E-05  9.6530E-05  9.2822E-05  8.9305E-05  8.6844E-05  8.5785E-05  8.6165E-05  8.7916E-05
       9.0926E-05  9.5025E-05  9.9951E-05  1.0532E-04  1.1061E-04  1.1532E-04  1.1925E-04  1.2308E-04  1.2588E-04  1.2738E-04
       1.2772E-04  1.2726E-04  1.2637E-04  1.2533E-04  1.2431E-04  1.2341E-04  1.2261E-04  1.2188E-04  1.2120E-04  1.2056E-04
       1.1993E-04  1.1929E-04  1.1864E-04  1.1795E-04  1.1722E-04
  23   1.0091E-04  1.0077E-04  9.9218E-05  9.6161E-05  9.2081E-05  8.8250E-05  8.5745E-05  8.4821E-05  8.5413E-05  8.7414E-05
       9.0701E-05  9.5109E-05  1.0039E-04  1.0616E-04  1.1196E-04  1.1724E-04  1.2164E-04  1.2518E-04  1.2763E-04  1.2881E-04
       1.2890E-04  1.2821E-04  1.2709E-04  1.2579E-04  1.2452E-04  1.2335E-04  1.2230E-04  1.2137E-04  1.2054E-04  1.1981E-04
       1.1913E-04  1.1849E-04  1.1785E-04  1.1719E-04  1.1649E-04
  24   1.0017E-04  1.0011E-04  9.8634E-05  9.5566E-05  9.1188E-05  8.7105E-05  8.4661E-05  8.3914E-05  8.4711E-05  8.6930E-05
       9.0452E-05  9.5123E-05  1.0070E-04  1.0684E-04  1.1307E-04  1.1887E-04  1.2374E-04  1.2707E-04  1.2915E-04  1.3002E-04
       1.2983E-04  1.2890E-04  1.2753E-04  1.2599E-04  1.2447E-04  1.2305E-04  1.2179E-04  1.2068E-04  1.1972E-04  1.1891E-04
       1.1820E-04  1.1756E-04  1.1695E-04  1.1632E-04  1.1567E-04
  25   9.8967E-05  9.8914E-05  9.7519E-05  9.4607E-05  9.0163E-05  8.5987E-05  8.3717E-05  8.3131E-05  8.4083E-05  8.6459E-05
       9.0150E-05  9.5009E-05  1.0081E-04  1.0721E-04  1.1373E-04  1.1981E-04  1.2484E-04  1.2825E-04  1.3017E-04  1.3081E-04
       1.3039E-04  1.2922E-04  1.2763E-04  1.2586E-04  1.2412E-04  1.2251E-04  1.2106E-04  1.1980E-04  1.1873E-04  1.1786E-04
       1.1714E-04  1.1652E-04  1.1594E-04  1.1536E-04  1.1475E-04
  26   9.7317E-05  9.7167E-05  9.5760E-05  9.2933E-05  8.8930E-05  8.5159E-05  8.2985E-05  8.2483E-05  8.3517E-05  8.5976E-05
       8.9756E-05  9.4716E-05  1.0063E-04  1.0717E-04  1.1384E-04  1.2005E-04  1.2516E-04  1.2866E-04  1.3057E-04  1.3108E-04
       1.3049E-04  1.2913E-04  1.2734E-04  1.2538E-04  1.2346E-04  1.2169E-04  1.2011E-04  1.1872E-04  1.1757E-04  1.1667E-04
       1.1595E-04  1.1536E-04  1.1484E-04  1.1431E-04  1.1376E-04
  27   9.5287E-05  9.4971E-05  9.3532E-05  9.0901E-05  8.7457E-05  8.4253E-05  8.2306E-05  8.1888E-05  8.2959E-05  8.5437E-05
       8.9230E-05  9.4205E-05  1.0015E-04  1.0671E-04  1.1343E-04  1.1967E-04  1.2482E-04  1.2840E-04  1.3034E-04  1.3080E-04
       1.3010E-04  1.2861E-04  1.2666E-04  1.2455E-04  1.2249E-04  1.2062E-04  1.1892E-04  1.1744E-04  1.1625E-04  1.1534E-04
       1.1465E-04  1.1411E-04  1.1364E-04  1.1318E-04  1.1270E-04
  28   9.2996E-05  9.2497E-05  9.1055E-05  8.8692E-05  8.5803E-05  8.3169E-05  8.1537E-05  8.1240E-05  8.2336E-05  8.4791E-05
       8.8535E-05  9.3450E-05  9.9331E-05  1.0585E-04  1.1252E-04  1.1875E-04  1.2392E-04  1.2757E-04  1.2956E-04  1.3001E-04
       1.2926E-04  1.2767E-04  1.2561E-04  1.2339E-04  1.2123E-04  1.1926E-04  1.1748E-04  1.1598E-04  1.1478E-04  1.1389E-04
       1.1324E-04  1.1276E-04  1.1236E-04  1.1198E-04  1.1158E-04
  29   9.0570E-05  8.9902E-05  8.8491E-05  8.6415E-05  8.4029E-05  8.1910E-05  8.0616E-05  8.0470E-05  8.1591E-05  8.3996E-05
       8.7645E-05  9.2440E-05  9.8196E-05  1.0460E-04  1.1118E-04  1.1737E-04  1.2255E-04  1.2625E-04  1.2829E-04  1.2877E-04
       1.2800E-04  1.2636E-04  1.2423E-04  1.2193E-04  1.1970E-04  1.1766E-04  1.1586E-04  1.1436E-04  1.1320E-04  1.1235E-04
       1.1175E-04  1.1134E-04  1.1102E-04  1.1072E-04  1.1040E-04
  30   8.8119E-05  8.7309E-05  8.5949E-05  8.4145E-05  8.2193E-05  8.0520E-05  7.9545E-05  7.9555E-05  8.0700E-05  8.3035E-05
       8.6554E-05  9.1182E-05  9.6760E-05  1.0300E-04  1.0946E-04  1.1559E-04  1.2076E-04  1.2452E-04  1.2662E-04  1.2714E-04
       1.2638E-04  1.2473E-04  1.2257E-04  1.2024E-04  1.1796E-04  1.1589E-04  1.1410E-04  1.1264E-04  1.1152E-04  1.1073E-04
       1.1019E-04  1.0985E-04  1.0961E-04  1.0940E-04  1.0917E-04
  31   8.5730E-05  8.4806E-05  8.3505E-05  8.1941E-05  8.0353E-05  7.9055E-05  7.8357E-05  7.8508E-05  7.9666E-05  8.1915E-05
       8.5275E-05  8.9700E-05  9.5058E-05  1.0110E-04  1.0741E-04  1.1346E-04  1.1864E-04  1.2244E-04  1.2460E-04  1.2518E-04
       1.2446E-04  1.2283E-04  1.2069E-04  1.1835E-04  1.1608E-04  1.1402E-04  1.1226E-04  1.1086E-04  1.0980E-04  1.0906E-04
       1.0859E-04  1.0831E-04  1.0816E-04  1.0805E-04  1.0791E-04
  32   8.3468E-05  8.2457E-05  8.1212E-05  7.9850E-05  7.8563E-05  7.7572E-05  7.7103E-05  7.7365E-05  7.8520E-05  8.0665E-05
       8.3844E-05  8.8035E-05  9.3139E-05  9.8942E-05  1.0508E-04  1.1105E-04  1.1623E-04  1.2008E-04  1.2232E-04  1.2297E-04
       1.2231E-04  1.2073E-04  1.1864E-04  1.1635E-04  1.1411E-04  1.1210E-04  1.1040E-04  1.0905E-04  1.0806E-04  1.0738E-04
       1.0696E-04  1.0675E-04  1.0668E-04  1.0666E-04  1.0663E-04
  33   8.1379E-05  8.0304E-05  7.9109E-05  7.7913E-05  7.6871E-05  7.6128E-05  7.5836E-05  7.6177E-05  7.7308E-05  7.9334E-05
       8.2313E-05  8.6246E-05  9.1064E-05  9.6596E-05  1.0254E-04  1.0840E-04  1.1359E-04  1.1750E-04  1.1980E-04  1.2053E-04
       1.1996E-04  1.1848E-04  1.1647E-04  1.1426E-04  1.1210E-04  1.1016E-04  1.0853E-04  1.0726E-04  1.0633E-04  1.0571E-04
       1.0533E-04  1.0517E-04  1.0518E-04  1.0527E-04  1.0534E-04
  34   7.9496E-05  7.8380E-05  7.7231E-05  7.6164E-05  7.5319E-05  7.4770E-05  7.4608E-05  7.4998E-05  7.6087E-05  7.7982E-05
       8.0749E-05  8.4404E-05  8.8908E-05  9.4135E-05  9.9834E-05  1.0558E-04  1.1077E-04  1.1474E-04  1.1712E-04  1.1794E-04
       1.1748E-04  1.1611E-04  1.1423E-04  1.1214E-04  1.1009E-04  1.0824E-04  1.0671E-04  1.0552E-04  1.0466E-04  1.0407E-04
       1.0372E-04  1.0360E-04  1.0369E-04  1.0389E-04  1.0407E-04
  35   7.7838E-05  7.6706E-05  7.5603E-05  7.4636E-05  7.3939E-05  7.3537E-05  7.3464E-05  7.3880E-05  7.4917E-05  7.6677E-05
       7.9225E-05  8.2593E-05  8.6761E-05  9.1644E-05  9.7056E-05  1.0265E-04  1.0783E-04  1.1185E-04  1.1430E-04  1.1522E-04
       1.1488E-04  1.1368E-04  1.1195E-04  1.1002E-04  1.0810E-04  1.0638E-04  1.0495E-04  1.0384E-04  1.0306E-04  1.0251E-04
       1.0216E-04  1.0206E-04  1.0224E-04  1.0255E-04  1.0285E-04
  36   7.6416E-05  7.5293E-05  7.4246E-05  7.3372E-05  7.2764E-05  7.2445E-05  7.2445E-05  7.2878E-05  7.3860E-05  7.5485E-05
       7.7821E-05  8.0900E-05  8.4721E-05  8.9229E-05  9.4296E-05  9.9668E-05  1.0482E-04  1.0888E-04  1.1139E-04  1.1241E-04
       1.1223E-04  1.1121E-04  1.0968E-04  1.0793E-04  1.0618E-04  1.0459E-04  1.0327E-04  1.0226E-04  1.0155E-04  1.0105E-04
       1.0069E-04  1.0060E-04  1.0087E-04  1.0130E-04  1.0169E-04
  37   7.5228E-05  7.4137E-05  7.3153E-05  7.2357E-05  7.1815E-05  7.1552E-05  7.1600E-05  7.2041E-05  7.2970E-05  7.4472E-05
       7.6607E-05  7.9411E-05  8.2891E-05  8.7009E-05  9.1678E-05  9.6734E-05  1.0181E-04  1.0588E-04  1.0843E-04  1.0955E-04
       1.0955E-04  1.0874E-04  1.0743E-04  1.0590E-04  1.0434E-04  1.0291E-04  1.0171E-04  1.0080E-04  1.0015E-04  9.9711E-05
       9.9332E-05  9.9289E-05  9.9660E-05  1.0016E-04  1.0062E-04
  38   7.4264E-05  7.3225E-05  7.2310E-05  7.1586E-05  7.1101E-05  7.0884E-05  7.0966E-05  7.1411E-05  7.2294E-05  7.3687E-05
       7.5643E-05  7.8198E-05  8.1361E-05  8.5104E-05  8.9359E-05  9.3997E-05  9.8833E-05  1.0289E-04  1.0544E-04  1.0669E-04
       1.0688E-04  1.0631E-04  1.0525E-04  1.0395E-04  1.0260E-04  1.0135E-04  1.0029E-04  9.9469E-05  9.8886E-05  9.8482E-05
       9.8206E-05  9.8256E-05  9.8644E-05  9.9164E-05  9.9653E-05
  39   7.3510E-05  7.2540E-05  7.1701E-05  7.1048E-05  7.0621E-05  7.0448E-05  7.0562E-05  7.1012E-05  7.1860E-05  7.3162E-05
       7.4969E-05  7.7309E-05  8.0192E-05  8.3600E-05  8.7481E-05  9.1735E-05  9.6113E-05  9.9925E-05  1.0250E-04  1.0387E-04
       1.0426E-04  1.0395E-04  1.0316E-04  1.0212E-04  1.0099E-04  9.9928E-05  9.9013E-05  9.8298E-05  9.7788E-05  9.7455E-05
       9.7297E-05  9.7413E-05  9.7794E-05  9.8296E-05  9.8780E-05
  40   7.2944E-05  7.2061E-05  7.1306E-05  7.0728E-05  7.0361E-05  7.0235E-05  7.0383E-05  7.0844E-05  7.1669E-05  7.2905E-05
       7.4590E-05  7.6751E-05  7.9395E-05  8.2505E-05  8.6035E-05  8.9880E-05  9.3782E-05  9.7216E-05  9.9695E-05  1.0116E-04
       1.0175E-04  1.0169E-04  1.0118E-04  1.0040E-04  9.9516E-05  9.8650E-05  9.7892E-05  9.7292E-05  9.6868E-05  9.6616E-05
       9.6546E-05  9.6701E-05  9.7061E-05  9.7524E-05  9.7987E-05



             ZONE ARRAY: HK_Par1_Z1
 READING ON UNIT   13 WITH FORMAT: (FREE)              



             ZONE ARRAY: HK_Par1_Z2
 READING ON UNIT   13 WITH FORMAT: (FREE)              



             ZONE ARRAY: HK_Par1_Z3
 READING ON UNIT   13 WITH FORMAT: (FREE)              

 LPF -- LAYER-PROPERTY FLOW PACKAGE, VERSION 7, 5/2/2005
         INPUT READ FROM UNIT   11
 # LPF: Layer Property Flow package file
 CELL-BY-CELL FLOWS WILL BE SAVED ON UNIT   50
 HEAD AT CELLS THAT CONVERT TO DRY=   999.00    
     1 Named Parameters     

   LAYER FLAGS:
 LAYER       LAYTYP        LAYAVG         CHANI        LAYVKA        LAYWET
 ---------------------------------------------------------------------------
    1             0             0     1.000E+00             1             0
    2             0             0     1.000E+00             1             0
    3             0             0     1.000E+00             1             0

   INTERPRETATION OF LAYER FLAGS:
                        INTERBLOCK     HORIZONTAL    DATA IN
         LAYER TYPE   TRANSMISSIVITY   ANISOTROPY   ARRAY VKA   WETTABILITY
 LAYER      (LAYTYP)      (LAYAVG)       (CHANI)      (LAYVKA)      (LAYWET)
 ---------------------------------------------------------------------------
    1      CONFINED      HARMONIC     1.000E+00    ANISOTROPY  NON-WETTABLE
    2      CONFINED      HARMONIC     1.000E+00    ANISOTROPY  NON-WETTABLE
    3      CONFINED      HARMONIC     1.000E+00    ANISOTROPY  NON-WETTABLE

 WETTING CAPABILITY IS NOT ACTIVE IN ANY LAYER

 PARAMETERS DEFINED IN THE LPF PACKAGE

 PARAMETER NAME:HK_Par1      TYPE:HK     CLUSTERS:   3
 Parameter value from package file is:    1.0000    
                LAYER:   1    MULTIPLIER ARRAY: HK_Par1_M1    ZONE ARRAY: HK_Par1_Z1
                ZONE VALUES:    1
                LAYER:   2    MULTIPLIER ARRAY: HK_Par1_M2    ZONE ARRAY: HK_Par1_Z2
                ZONE VALUES:    1
                LAYER:   3    MULTIPLIER ARRAY: HK_Par1_M3    ZONE ARRAY: HK_Par1_Z3
                ZONE VALUES:    1

    HYD. COND. ALONG ROWS FOR LAYER   1 WILL BE DEFINED BY PARAMETERS
 (PRINT FLAG=  -1)

    HYD. COND. ALONG ROWS is defined by the following parameters:
 HK_Par1   


              HYD. COND. ALONG ROWS FOR LAYER   1

  HORIZ. TO VERTICAL ANI. =   1.00000     FOR LAYER   1

    HYD. COND. ALONG ROWS FOR LAYER   2 WILL BE DEFINED BY PARAMETERS
 (PRINT FLAG=  -1)

    HYD. COND. ALONG ROWS is defined by the following parameters:
 HK_Par1   


              HYD. COND. ALONG ROWS FOR LAYER   2

  HORIZ. TO VERTICAL ANI. =   1.00000     FOR LAYER   2

    HYD. COND. ALONG ROWS FOR LAYER   3 WILL BE DEFINED BY PARAMETERS
 (PRINT FLAG=  -1)

    HYD. COND. ALONG ROWS is defined by the following parameters:
 HK_Par1   


              HYD. COND. ALONG ROWS FOR LAYER   3

  HORIZ. TO VERTICAL ANI. =   1.00000     FOR LAYER   3

 WEL -- WELL PACKAGE, VERSION 7, 5/2/2005 INPUT READ FROM UNIT   12
 # WEL: Well package file
 No named parameters
 MAXIMUM OF      3 ACTIVE WELLS AT ONE TIME
 CELL-BY-CELL FLOWS WILL BE SAVED ON UNIT   54


     0 Well parameters

 CHD -- TIME-VARIANT SPECIFIED-HEAD OPTION, VERSION 7, 5/2/2005
 INPUT READ FROM UNIT   40
 # CHD: Time-Variant Specified-Head package file created
 No named parameters
 MAXIMUM OF    240 TIME-VARIANT SPECIFIED-HEAD CELLS AT ONE TIME
 AUXILIARY CHD VARIABLE: IFACE           


     0 TIME-VARIANT SPECIFIED-HEAD PARAMETERS

 PCG -- CONJUGATE-GRADIENT SOLUTION PACKAGE, VERSION 7, 5/2/2005
 MAXIMUM OF   1000 CALLS OF SOLUTION ROUTINE
 MAXIMUM OF     40 INTERNAL ITERATIONS PER CALL TO SOLUTION ROUTINE
 MATRIX PRECONDITIONING TYPE :    1



                                    SOLUTION BY THE CONJUGATE-GRADIENT METHOD
                                   -------------------------------------------
                    MAXIMUM NUMBER OF CALLS TO PCG ROUTINE =     1000
                        MAXIMUM ITERATIONS PER CALL TO PCG =       40
                               MATRIX PRECONDITIONING TYPE =        1
        RELAXATION FACTOR (ONLY USED WITH PRECOND. TYPE 1) =    0.10000E+01
 PARAMETER OF POLYNOMIAL PRECOND. = 2 (2) OR IS CALCULATED :        2
                         HEAD CHANGE CRITERION FOR CLOSURE =    0.10000E-05
                     RESIDUAL CHANGE CRITERION FOR CLOSURE =    0.10000E-05
            PCG HEAD AND RESIDUAL CHANGE PRINTOUT INTERVAL =        5
     PRINTING FROM SOLVER IS LIMITED(1) OR SUPPRESSED (>1) =        0
                                         DAMPING PARAMETER =    0.10000E+01

 OBS2BAS7 -- HEAD OBSERVATIONS, VERSION 2.0, 2/28/2006
 INPUT READ FROM UNIT  18
 # HOB: Head Observation package file

 NUMBER OF HEADS....................................:   36
   NUMBER OF MULTILAYER HEADS.......................:    0
   MAXIMUM NUMBER OF LAYERS FOR MULTILAYER HEADS....:    2
 HEAD OBSERVATIONS WILL BE SAVED ON UNIT............:   14
 SIMULATED EQUIVALENT HEAD AT DRY CELLS WILL BE:    999.000    

 OBSERVED HEAD DATA -- TIME OFFSETS ARE MULTIPLIED BY:   1.0000    

                    REFER.
       OBSERVATION  STRESS    TIME
  OBS#    NAME      PERIOD   OFFSET    OBSERVATION
     1 obs1_01          1    1.000       0.000    
     2 obs1_02          1    1.000       0.000    
     3 obs1_03          1    1.000       0.000    
     4 obs1_04          1    1.000       0.000    
     5 obs1_05          1    1.000       0.000    
     6 obs1_06          1    1.000       0.000    
     7 obs1_07          1    1.000       0.000    
     8 obs1_08          1    1.000       0.000    
     9 obs1_09          1    1.000       0.000    
    10 obs1_10          1    1.000       0.000    
    11 obs1_11          1    1.000       0.000    
    12 obs1_12          1    1.000       0.000    
    13 obs2_01          1    1.000       0.000    
    14 obs2_02          1    1.000       0.000    
    15 obs2_03          1    1.000       0.000    
    16 obs2_04          1    1.000       0.000    
    17 obs2_05          1    1.000       0.000    
    18 obs2_06          1    1.000       0.000    
    19 obs2_07          1    1.000       0.000    
    20 obs2_08          1    1.000       0.000    
    21 obs2_09          1    1.000       0.000    
    22 obs2_10          1    1.000       0.000    
    23 obs2_11          1    1.000       0.000    
    24 obs2_12          1    1.000       0.000    
    25 obs3_01          1    1.000       0.000    
    26 obs3_02          1    1.000       0.000    
    27 obs3_03          1    1.000       0.000    
    28 obs3_04          1    1.000       0.000    
    29 obs3_05          1    1.000       0.000    
    30 obs3_06          1    1.000       0.000    
    31 obs3_07          1    1.000       0.000    
    32 obs3_08          1    1.000       0.000    
    33 obs3_09          1    1.000       0.000    
    34 obs3_10          1    1.000       0.000    
    35 obs3_11          1    1.000       0.000    
    36 obs3_12          1    1.000       0.000    

                                                     HEAD CHANGE
                                                      REFERENCE
        OBSERVATION                   ROW     COL    OBSERVATION
  OBS#     NAME       LAY  ROW  COL  OFFSET  OFFSET   (IF > 0)
     1  obs1_01         1    5    5   0.000   0.000        0
     2  obs1_02         1    5   31   0.000   0.000        0
     3  obs1_03         1   16    8   0.000   0.000        0
     4  obs1_04         1   17   26   0.000   0.000        0
     5  obs1_05         1   35    5   0.000   0.000        0
     6  obs1_06         1   37   31   0.000   0.000        0
     7  obs1_07         1   23   17   0.000   0.000        0
     8  obs1_08         1    6   20   0.000   0.000        0
     9  obs1_09         1   25    5   0.000   0.000        0
    10  obs1_10         1   27   26   0.000   0.000        0
    11  obs1_11         1   38   17   0.000   0.000        0
    12  obs1_12         1   13   18   0.000   0.000        0
    13  obs2_01         2    5    5   0.000   0.000        0
    14  obs2_02         2    5   31   0.000   0.000        0
    15  obs2_03         2   16    8   0.000   0.000        0
    16  obs2_04         2   17   26   0.000   0.000        0
    17  obs2_05         2   35    5   0.000   0.000        0
    18  obs2_06         2   37   31   0.000   0.000        0
    19  obs2_07         2   23   17   0.000   0.000        0
    20  obs2_08         2    6   20   0.000   0.000        0
    21  obs2_09         2   25    5   0.000   0.000        0
    22  obs2_10         2   27   26   0.000   0.000        0
    23  obs2_11         2   38   17   0.000   0.000        0
    24  obs2_12         2   13   18   0.000   0.000        0
    25  obs3_01         3    5    5   0.000   0.000        0
    26  obs3_02         3    5   31   0.000   0.000        0
    27  obs3_03         3   16    8   0.000   0.000        0
    28  obs3_04         3   17   26   0.000   0.000        0
    29  obs3_05         3   35    5   0.000   0.000        0
    30  obs3_06         3   37   31   0.000   0.000        0
    31  obs3_07         3   23   17   0.000   0.000        0
    32  obs3_08         3    6   20   0.000   0.000        0
    33  obs3_09         3   25    5   0.000   0.000        0
    34  obs3_10         3   27   26   0.000   0.000        0
    35  obs3_11         3   38   17   0.000   0.000        0
    36  obs3_12         3   13   18   0.000   0.000        0
1
                            STRESS PERIOD NO.    1, LENGTH =   1.000000    
                            -----------------------------------------------

                              NUMBER OF TIME STEPS =     1

                               MULTIPLIER FOR DELT =     1.000

                            INITIAL TIME STEP SIZE =   1.000000    

 WELL NO.  LAYER   ROW   COL   STRESS RATE         
 --------------------------------------------------
      1      1     18     17     -0.1500E-01
      2      2     18     17     -0.1500E-01
      3      3     18     17     -0.1500E-01

      3 WELLS

 CHD NO.   LAYER   ROW   COL    START HEAD        END HEAD         IFACE           
 ----------------------------------------------------------------------------------
      1      1      1      1       60.00           60.00           0.000    
      2      2      1      1       60.00           60.00           0.000    
      3      3      1      1       60.00           60.00           0.000    
      4      1      2      1       60.00           60.00           0.000    
      5      2      2      1       60.00           60.00           0.000    
      6      3      2      1       60.00           60.00           0.000    
      7      1      3      1       60.00           60.00           0.000    
      8      2      3      1       60.00           60.00           0.000    
      9      3      3      1       60.00           60.00           0.000    
     10      1      4      1       60.00           60.00           0.000    
     11      2      4      1       60.00           60.00           0.000    
     12      3      4      1       60.00           60.00           0.000    
     13      1      5      1       60.00           60.00           0.000    
     14      2      5      1       60.00           60.00           0.000    
     15      3      5      1       60.00           60.00           0.000    
     16      1      6      1       60.00           60.00           0.000    
     17      2      6      1       60.00           60.00           0.000    
     18      3      6      1       60.00           60.00           0.000    
     19      1      7      1       60.00           60.00           0.000    
     20      2      7      1       60.00           60.00           0.000    
     21      3      7      1       60.00           60.00           0.000    
     22      1      8      1       60.00           60.00           0.000    
     23      2      8      1       60.00           60.00           0.000    
     24      3      8      1       60.00           60.00           0.000    
     25      1      9      1       60.00           60.00           0.000    
     26      2      9      1       60.00           60.00           0.000    
     27      3      9      1       60.00           60.00           0.000    
     28      1     10      1       60.00           60.00           0.000    
     29      2     10      1       60.00           60.00           0.000    
     30      3     10      1       60.00           60.00           0.000    
     31      1     11      1       60.00           60.00           0.000    
     32      2     11      1       60.00           60.00           0.000    
     33      3     11      1       60.00           60.00           0.000    
     34      1     12      1       60.00           60.00           0.000    
     35      2     12      1       60.00           60.00           0.000    
     36      3     12      1       60.00           60.00           0.000    
     37      1     13      1       60.00           60.00           0.000    
     38      2     13      1       60.00           60.00           0.000    
     39      3     13      1       60.00           60.00           0.000    
     40      1     14      1       60.00           60.00           0.000    
     41      2     14      1       60.00           60.00           0.000    
     42      3     14      1       60.00           60.00           0.000    
     43      1     15      1       60.00           60.00           0.000    
     44      2     15      1       60.00           60.00           0.000    
     45      3     15      1       60.00           60.00           0.000    
     46      1     16      1       60.00           60.00           0.000    
     47      2     16      1       60.00           60.00           0.000    
     48      3     16      1       60.00           60.00           0.000    
     49      1     17      1       60.00           60.00           0.000    
     50      2     17      1       60.00           60.00           0.000    
     51      3     17      1       60.00           60.00           0.000    
     52      1     18      1       60.00           60.00           0.000    
     53      2     18      1       60.00           60.00           0.000    
     54      3     18      1       60.00           60.00           0.000    
     55      1     19      1       60.00           60.00           0.000    
     56      2     19      1       60.00           60.00           0.000    
     57      3     19      1       60.00           60.00           0.000    
     58      1     20      1       60.00           60.00           0.000    
     59      2     20      1       60.00           60.00           0.000    
     60      3     20      1       60.00           60.00           0.000    
     61      1     21      1       60.00           60.00           0.000    
     62      2     21      1       60.00           60.00           0.000    
     63      3     21      1       60.00           60.00           0.000    
     64      1     22      1       60.00           60.00           0.000    
     65      2     22      1       60.00           60.00           0.000    
     66      3     22      1       60.00           60.00           0.000    
     67      1     23      1       60.00           60.00           0.000    
     68      2     23      1       60.00           60.00           0.000    
     69      3     23      1       60.00           60.00           0.000    
     70      1     24      1       60.00           60.00           0.000    
     71      2     24      1       60.00           60.00           0.000    
     72      3     24      1       60.00           60.00           0.000    
     73      1     25      1       60.00           60.00           0.000    
     74      2     25      1       60.00           60.00           0.000    
     75      3     25      1       60.00           60.00           0.000    
     76      1     26      1       60.00           60.00           0.000    
     77      2     26      1       60.00           60.00           0.000    
     78      3     26      1       60.00           60.00           0.000    
     79      1     27      1       60.00           60.00           0.000    
     80      2     27      1       60.00           60.00           0.000    
     81      3     27      1       60.00           60.00           0.000    
     82      1     28      1       60.00           60.00           0.000    
     83      2     28      1       60.00           60.00           0.000    
     84      3     28      1       60.00           60.00           0.000    
     85      1     29      1       60.00           60.00           0.000    
     86      2     29      1       60.00           60.00           0.000    
     87      3     29      1       60.00           60.00           0.000    
     88      1     30      1       60.00           60.00           0.000    
     89      2     30      1       60.00           60.00           0.000    
     90      3     30      1       60.00           60.00           0.000    
     91      1     31      1       60.00           60.00           0.000    
     92      2     31      1       60.00           60.00           0.000    
     93      3     31      1       60.00           60.00           0.000    
     94      1     32      1       60.00           60.00           0.000    
     95      2     32      1       60.00           60.00           0.000    
     96      3     32      1       60.00           60.00           0.000    
     97      1     33      1       60.00           60.00           0.000    
     98      2     33      1       60.00           60.00           0.000    
     99      3     33      1       60.00           60.00           0.000    
    100      1     34      1       60.00           60.00           0.000    
    101      2     34      1       60.00           60.00           0.000    
    102      3     34      1       60.00           60.00           0.000    
    103      1     35      1       60.00           60.00           0.000    
    104      2     35      1       60.00           60.00           0.000    
    105      3     35      1       60.00           60.00           0.000    
    106      1     36      1       60.00           60.00           0.000    
    107      2     36      1       60.00           60.00           0.000    
    108      3     36      1       60.00           60.00           0.000    
    109      1     37      1       60.00           60.00           0.000    
    110      2     37      1       60.00           60.00           0.000    
    111      3     37      1       60.00           60.00           0.000    
    112      1     38      1       60.00           60.00           0.000    
    113      2     38      1       60.00           60.00           0.000    
    114      3     38      1       60.00           60.00           0.000    
    115      1     39      1       60.00           60.00           0.000    
    116      2     39      1       60.00           60.00           0.000    
    117      3     39      1       60.00           60.00           0.000    
    118      1     40      1       60.00           60.00           0.000    
    119      2     40      1       60.00           60.00           0.000    
    120      3     40      1       60.00           60.00           0.000    
    121      1      1     35       58.00           58.00           0.000    
    122      2      1     35       58.00           58.00           0.000    
    123      3      1     35       58.00           58.00           0.000    
    124      1      2     35       58.00           58.00           0.000    
    125      2      2     35       58.00           58.00           0.000    
    126      3      2     35       58.00           58.00           0.000    
    127      1      3     35       58.00           58.00           0.000    
    128      2      3     35       58.00           58.00           0.000    
    129      3      3     35       58.00           58.00           0.000    
    130      1      4     35       58.00           58.00           0.000    
    131      2      4     35       58.00           58.00           0.000    
    132      3      4     35       58.00           58.00           0.000    
    133      1      5     35       58.00           58.00           0.000    
    134      2      5     35       58.00           58.00           0.000    
    135      3      5     35       58.00           58.00           0.000    
    136      1      6     35       58.00           58.00           0.000    
    137      2      6     35       58.00           58.00           0.000    
    138      3      6     35       58.00           58.00           0.000    
    139      1      7     35       58.00           58.00           0.000    
    140      2      7     35       58.00           58.00           0.000    
    141      3      7     35       58.00           58.00           0.000    
    142      1      8     35       58.00           58.00           0.000    
    143      2      8     35       58.00           58.00           0.000    
    144      3      8     35       58.00           58.00           0.000    
    145      1      9     35       58.00           58.00           0.000    
    146      2      9     35       58.00           58.00           0.000    
    147      3      9     35       58.00           58.00           0.000    
    148      1     10     35       58.00           58.00           0.000    
    149      2     10     35       58.00           58.00           0.000    
    150      3     10     35       58.00           58.00           0.000    
    151      1     11     35       58.00           58.00           0.000    
    152      2     11     35       58.00           58.00           0.000    
    153      3     11     35       58.00           58.00           0.000    
    154      1     12     35       58.00           58.00           0.000    
    155      2     12     35       58.00           58.00           0.000    
    156      3     12     35       58.00           58.00           0.000    
    157      1     13     35       58.00           58.00           0.000    
    158      2     13     35       58.00           58.00           0.000    
    159      3     13     35       58.00           58.00           0.000    
    160      1     14     35       58.00           58.00           0.000    
    161      2     14     35       58.00           58.00           0.000    
    162      3     14     35       58.00           58.00           0.000    
    163      1     15     35       58.00           58.00           0.000    
    164      2     15     35       58.00           58.00           0.000    
    165      3     15     35       58.00           58.00           0.000    
    166      1     16     35       58.00           58.00           0.000    
    167      2     16     35       58.00           58.00           0.000    
    168      3     16     35       58.00           58.00           0.000    
    169      1     17     35       58.00           58.00           0.000    
    170      2     17     35       58.00           58.00           0.000    
    171      3     17     35       58.00           58.00           0.000    
    172      1     18     35       58.00           58.00           0.000    
    173      2     18     35       58.00           58.00           0.000    
    174      3     18     35       58.00           58.00           0.000    
    175      1     19     35       58.00           58.00           0.000    
    176      2     19     35       58.00           58.00           0.000    
    177      3     19     35       58.00           58.00           0.000    
    178      1     20     35       58.00           58.00           0.000    
    179      2     20     35       58.00           58.00           0.000    
    180      3     20     35       58.00           58.00           0.000    
    181      1     21     35       58.00           58.00           0.000    
    182      2     21     35       58.00           58.00           0.000    
    183      3     21     35       58.00           58.00           0.000    
    184      1     22     35       58.00           58.00           0.000    
    185      2     22     35       58.00           58.00           0.000    
    186      3     22     35       58.00           58.00           0.000    
    187      1     23     35       58.00           58.00           0.000    
    188      2     23     35       58.00           58.00           0.000    
    189      3     23     35       58.00           58.00           0.000    
    190      1     24     35       58.00           58.00           0.000    
    191      2     24     35       58.00           58.00           0.000    
    192      3     24     35       58.00           58.00           0.000    
    193      1     25     35       58.00           58.00           0.000    
    194      2     25     35       58.00           58.00           0.000    
    195      3     25     35       58.00           58.00           0.000    
    196      1     26     35       58.00           58.00           0.000    
    197      2     26     35       58.00           58.00           0.000    
    198      3     26     35       58.00           58.00           0.000    
    199      1     27     35       58.00           58.00           0.000    
    200      2     27     35       58.00           58.00           0.000    
    201      3     27     35       58.00           58.00           0.000    
    202      1     28     35       58.00           58.00           0.000    
    203      2     28     35       58.00           58.00           0.000    
    204      3     28     35       58.00           58.00           0.000    
    205      1     29     35       58.00           58.00           0.000    
    206      2     29     35       58.00           58.00           0.000    
    207      3     29     35       58.00           58.00           0.000    
    208      1     30     35       58.00           58.00           0.000    
    209      2     30     35       58.00           58.00           0.000    
    210      3     30     35       58.00           58.00           0.000    
    211      1     31     35       58.00           58.00           0.000    
    212      2     31     35       58.00           58.00           0.000    
    213      3     31     35       58.00           58.00           0.000    
    214      1     32     35       58.00           58.00           0.000    
    215      2     32     35       58.00           58.00           0.000    
    216      3     32     35       58.00           58.00           0.000    
    217      1     33     35       58.00           58.00           0.000    
    218      2     33     35       58.00           58.00           0.000    
    219      3     33     35       58.00           58.00           0.000    
    220      1     34     35       58.00           58.00           0.000    
    221      2     34     35       58.00           58.00           0.000    
    222      3     34     35       58.00           58.00           0.000    
    223      1     35     35       58.00           58.00           0.000    
    224      2     35     35       58.00           58.00           0.000    
    225      3     35     35       58.00           58.00           0.000    
    226      1     36     35       58.00           58.00           0.000    
    227      2     36     35       58.00           58.00           0.000    
    228      3     36     35       58.00           58.00           0.000    
    229      1     37     35       58.00           58.00           0.000    
    230      2     37     35       58.00           58.00           0.000    
    231      3     37     35       58.00           58.00           0.000    
    232      1     38     35       58.00           58.00           0.000    
    233      2     38     35       58.00           58.00           0.000    
    234      3     38     35       58.00           58.00           0.000    
    235      1     39     35       58.00           58.00           0.000    
    236      2     39     35       58.00           58.00           0.000    
    237      3     39     35       58.00           58.00           0.000    
    238      1     40     35       58.00           58.00           0.000    
    239      2     40     35       58.00           58.00           0.000    
    240      3     40     35       58.00           58.00           0.000    


    240 TIME-VARIANT SPECIFIED-HEAD CELLS
 
 SOLVING FOR HEAD 


     2 CALLS TO PCG ROUTINE FOR TIME STEP   1 IN STRESS PERIOD    1
    37 TOTAL ITERATIONS

 MAXIMUM HEAD CHANGE FOR EACH ITERATION (1 INDICATES THE FIRST INNER ITERATION):

    HEAD CHANGE    HEAD CHANGE    HEAD CHANGE    HEAD CHANGE    HEAD CHANGE 
   LAYER,ROW,COL  LAYER,ROW,COL  LAYER,ROW,COL  LAYER,ROW,COL  LAYER,ROW,COL
 ---------------------------------------------------------------------------
  1  -7.291      0   3.022      0  -1.342      0  0.8878      0 -0.5498    
   (  2, 18, 17)  (  2, 29, 24)  (  2, 18, 21)  (  2,  2, 14)  (  2, 16, 25)
  0 -0.4385      0 -0.3658      0 -0.2919      0 -0.1200      0 -0.6110E-01
   (  2, 18, 17)  (  2, 18, 17)  (  2, 18, 17)  (  3, 18, 17)  (  3, 21, 14)
  0 -0.4626E-01  0  0.2860E-01  0  0.1588E-01  0 -0.9901E-02  0 -0.1002E-01
   (  3, 15, 20)  (  2, 40, 28)  (  2, 15, 30)  (  1, 13, 21)  (  2,  9, 26)
  0  0.6940E-02  0  0.4343E-02  0 -0.3107E-02  0 -0.2146E-02  0  0.1459E-02
   (  2, 16, 28)  (  2, 36, 22)  (  2, 40, 25)  (  2, 19, 24)  (  2, 36, 19)
  0 -0.7657E-03  0 -0.5075E-03  0 -0.3691E-03  0  0.3198E-03  0 -0.1584E-03
   (  3, 40, 28)  (  2,  8, 27)  (  2, 15, 17)  (  2, 25, 24)  (  2, 28, 25)
  0  0.8130E-04  0  0.3661E-04  0 -0.2310E-04  0  0.1384E-04  0  0.7432E-05
   (  2, 31, 29)  (  2, 10, 29)  (  2, 21, 14)  (  2, 31, 19)  (  2, 25, 26)
  0 -0.9250E-05  0  0.5895E-05  0 -0.3704E-05  0  0.1431E-05  0 -0.1194E-05
   (  2, 37, 22)  (  2, 30, 14)  (  2, 38, 18)  (  3, 31, 26)  (  3, 27, 23)
  0  0.5622E-06  1 -0.4252E-06
   (  2, 32, 24)  (  2, 39, 18)

 MAXIMUM RESIDUAL FOR EACH ITERATION (1 INDICATES THE FIRST INNER ITERATION):

    RESIDUAL       RESIDUAL       RESIDUAL       RESIDUAL       RESIDUAL    
   LAYER,ROW,COL  LAYER,ROW,COL  LAYER,ROW,COL  LAYER,ROW,COL  LAYER,ROW,COL
 ---------------------------------------------------------------------------
  1  0.1093E-01  0  0.7707E-02  0  0.6891E-02  0  0.5860E-02  0  0.4232E-02
   (  1, 18, 17)  (  1,  1, 34)  (  1,  1, 34)  (  1,  1, 34)  (  1,  1, 34)
  0  0.2416E-02  0 -0.1379E-02  0 -0.1219E-02  0 -0.9308E-03  0  0.5277E-03
   (  1,  1, 34)  (  1,  2, 34)  (  1,  2, 34)  (  1,  2, 34)  (  1,  2, 33)
  0  0.4164E-03  0  0.2486E-03  0  0.1250E-03  0 -0.9330E-04  0 -0.7099E-04
   (  1,  2, 33)  (  1,  2, 33)  (  1,  2, 33)  (  1,  3, 33)  (  1,  3, 33)
  0 -0.4183E-04  0 -0.1936E-04  0  0.1354E-04  0 -0.8709E-05  0 -0.5914E-05
   (  1,  3, 33)  (  1,  3, 33)  (  1,  3, 32)  (  1,  5, 32)  (  1,  5, 32)
  0 -0.3179E-05  0 -0.1744E-05  0 -0.1186E-05  0 -0.7983E-06  0 -0.5152E-06
   (  1,  4, 32)  (  1,  4, 32)  (  1,  4, 32)  (  1,  7, 31)  (  1,  6, 31)
  0 -0.2719E-06  0 -0.1253E-06  0  0.7906E-07  0  0.6188E-07  0  0.4877E-07
   (  1,  6, 31)  (  1,  4, 32)  (  1,  4, 31)  (  1,  4, 31)  (  1,  4, 31)
  0  0.3155E-07  0  0.1707E-07  0 -0.9385E-08  0 -0.6991E-08  0 -0.4697E-08
   (  1,  4, 31)  (  1,  4, 31)  (  1,  5, 31)  (  1,  5, 31)  (  1,  5, 31)
  0  0.2895E-08  1  0.2404E-08
   (  1,  5, 30)  (  1,  5, 30)



 OUTPUT CONTROL FOR STRESS PERIOD    1   TIME STEP   1
    SAVE HEAD FOR ALL LAYERS

 HEAD WILL BE SAVED ON UNIT   30 AT END OF TIME STEP   1, STRESS PERIOD    1
1
  VOLUMETRIC BUDGET FOR ENTIRE MODEL AT END OF TIME STEP  1 IN STRESS PERIOD   1
  ------------------------------------------------------------------------------

     CUMULATIVE VOLUMES      L**3       RATES FOR THIS TIME STEP      L**3/T
     ------------------                 ------------------------

           IN:                                      IN:
           ---                                      ---
             STORAGE =           0.0000               STORAGE =           0.0000
       CONSTANT HEAD =       4.5835E-02         CONSTANT HEAD =       4.5835E-02
               WELLS =           0.0000                 WELLS =           0.0000

            TOTAL IN =       4.5835E-02              TOTAL IN =       4.5835E-02

          OUT:                                     OUT:
          ----                                     ----
             STORAGE =           0.0000               STORAGE =           0.0000
       CONSTANT HEAD =       8.3505E-04         CONSTANT HEAD =       8.3505E-04
               WELLS =       4.5000E-02                 WELLS =       4.5000E-02

           TOTAL OUT =       4.5835E-02             TOTAL OUT =       4.5835E-02

            IN - OUT =      -3.7253E-09              IN - OUT =      -3.7253E-09

 PERCENT DISCREPANCY =           0.00     PERCENT DISCREPANCY =           0.00






          TIME SUMMARY AT END OF TIME STEP   1 IN STRESS PERIOD    1
                    SECONDS     MINUTES      HOURS       DAYS        YEARS
                    -----------------------------------------------------------
   TIME STEP LENGTH  1.0000     1.66667E-02 2.77778E-04 1.15741E-05 3.16881E-08
 STRESS PERIOD TIME  1.0000     1.66667E-02 2.77778E-04 1.15741E-05 3.16881E-08
         TOTAL TIME  1.0000     1.66667E-02 2.77778E-04 1.15741E-05 3.16881E-08
1

 HEAD AND DRAWDOWN OBSERVATIONS
 OBSERVATION      OBSERVED      SIMULATED
   NAME             VALUE         VALUE      DIFFERENCE
 -------------------------------------------------------
 obs1_01         0.00000       59.4746      -59.4746    
 obs1_02         0.00000       58.0244      -58.0244    
 obs1_03         0.00000       59.0088      -59.0088    
 obs1_04         0.00000       57.9671      -57.9671    
 obs1_05         0.00000       59.5722      -59.5722    
 obs1_06         0.00000       58.0779      -58.0779    
 obs1_07         0.00000       58.0630      -58.0630    
 obs1_08         0.00000       58.2537      -58.2537    
 obs1_09         0.00000       59.4487      -59.4487    
 obs1_10         0.00000       58.0594      -58.0594    
 obs1_11         0.00000       58.6521      -58.6521    
 obs1_12         0.00000       58.0426      -58.0426    
 obs2_01         0.00000       59.3769      -59.3769    
 obs2_02         0.00000       57.9007      -57.9007    
 obs2_03         0.00000       58.6784      -58.6784    
 obs2_04         0.00000       57.5523      -57.5523    
 obs2_05         0.00000       59.4858      -59.4858    
 obs2_06         0.00000       57.9831      -57.9831    
 obs2_07         0.00000       56.6391      -56.6391    
 obs2_08         0.00000       57.6564      -57.6564    
 obs2_09         0.00000       59.3442      -59.3442    
 obs2_10         0.00000       57.7307      -57.7307    
 obs2_11         0.00000       58.2652      -58.2652    
 obs2_12         0.00000       56.6844      -56.6844    
 obs3_01         0.00000       59.2597      -59.2597    
 obs3_02         0.00000       57.7890      -57.7890    
 obs3_03         0.00000       58.4762      -58.4762    
 obs3_04         0.00000       57.3255      -57.3255    
 obs3_05         0.00000       59.3519      -59.3519    
 obs3_06         0.00000       57.8780      -57.8780    
 obs3_07         0.00000       56.6313      -56.6313    
 obs3_08         0.00000       57.3327      -57.3327    
 obs3_09         0.00000       59.2485      -59.2485    
 obs3_10         0.00000       57.5243      -57.5243    
 obs3_11         0.00000       57.9013      -57.9013    
 obs3_12         0.00000       56.5594      -56.5594    

 SUM OF SQUARED DIFFERENCE:    1.21971E+05

 Run end date and time (yyyy/mm/dd hh:mm:ss): 2011/10/11 18:24:34
 Elapsed run time:  0.047 Seconds

