                        MODFLOW-ADJOINT Version 0.96 07/14/2007
            SENSITIVITY CALCULATIONS USING THE ADJOINT STATE METHOD FOR
      U.S. GEOLOGICAL SURVEY MODULAR FINITE-DIFFERENCE GROUND-WATER FLOW MODEL
                             VERSION 1.1 05/18/2006

 LIST FILE: three_layers_adj.lst
                         UNIT    7

 OPENING three_layers.bas
 FILE TYPE:BAS6   UNIT    1   STATUS:OLD    
 FORMAT:FORMATTED              ACCESS:SEQUENTIAL          

 OPENING three_layers.dis
 FILE TYPE:DIS   UNIT   29   STATUS:OLD    
 FORMAT:FORMATTED              ACCESS:SEQUENTIAL          

 OPENING three_layers.lpf
 FILE TYPE:LPF   UNIT   11   STATUS:OLD    
 FORMAT:FORMATTED              ACCESS:SEQUENTIAL          

 OPENING three_layers.zon
 FILE TYPE:ZONE   UNIT   13   STATUS:OLD    
 FORMAT:FORMATTED              ACCESS:SEQUENTIAL          

 OPENING three_layers.wel
 FILE TYPE:WEL   UNIT   12   STATUS:OLD    
 FORMAT:FORMATTED              ACCESS:SEQUENTIAL          

 OPENING three_layers.oc
 FILE TYPE:OC   UNIT   22   STATUS:OLD    
 FORMAT:FORMATTED              ACCESS:SEQUENTIAL          

 OPENING three_layers.mlt
 FILE TYPE:MULT   UNIT    8   STATUS:OLD    
 FORMAT:FORMATTED              ACCESS:SEQUENTIAL          

 OPENING three_layers.pcg
 FILE TYPE:PCG   UNIT   19   STATUS:OLD    
 FORMAT:FORMATTED              ACCESS:SEQUENTIAL          

 OPENING three_layers.chd
 FILE TYPE:CHD   UNIT   40   STATUS:OLD    
 FORMAT:FORMATTED              ACCESS:SEQUENTIAL          

 OPENING three_layers.hob
 FILE TYPE:HOB   UNIT   18   STATUS:OLD    
 FORMAT:FORMATTED              ACCESS:SEQUENTIAL          

 OPENING three_layers.adj
 FILE TYPE:ADJ   UNIT   35   STATUS:OLD    
 FORMAT:FORMATTED              ACCESS:SEQUENTIAL          

 OPENING three_layers_adj.out
 FILE TYPE:DATA   UNIT   44   STATUS:UNKNOWN
 FORMAT:FORMATTED              ACCESS:SEQUENTIAL          

 OPENING three_layers_adj.pcg
 FILE TYPE:DATA   UNIT   75   STATUS:UNKNOWN
 FORMAT:FORMATTED              ACCESS:SEQUENTIAL          

 OPENING three_layers.hbs
 FILE TYPE:DATA   UNIT   14   STATUS:UNKNOWN
 FORMAT:FORMATTED              ACCESS:SEQUENTIAL          

 OPENING three_layers.sen
 FILE TYPE:DATA   UNIT   48   STATUS:UNKNOWN
 FORMAT:FORMATTED              ACCESS:SEQUENTIAL          

 OPENING three_layers.cbb
 FILE TYPE:DATA(BINARY)   UNIT   50   STATUS:UNKNOWN
 FORMAT:UNFORMATTED            ACCESS:SEQUENTIAL          

 OPENING three_layers.cbw
 FILE TYPE:DATA(BINARY)   UNIT   54   STATUS:UNKNOWN
 FORMAT:UNFORMATTED            ACCESS:SEQUENTIAL          

 OPENING three_layers.hds
 FILE TYPE:DATA(BINARY)   UNIT   30   STATUS:UNKNOWN
 FORMAT:UNFORMATTED            ACCESS:SEQUENTIAL          

 OPENING three_layers.ddn
 FILE TYPE:DATA(BINARY)   UNIT   31   STATUS:UNKNOWN
 FORMAT:UNFORMATTED            ACCESS:SEQUENTIAL          

 BAS -- BASIC PACKAGE, VERSION 7, 5/2/2005 INPUT READ FROM UNIT    1

 DISCRETIZATION INPUT DATA READ FROM UNIT   29
 # Discretization File
 # Upper left corner: (0, 0)
 # Lower left corner: (0, -60)
 # Upper right corner: (70, 0)
 # Lower right corner: (70, -60)
    3 LAYERS        40 ROWS        35 COLUMNS
    1 STRESS PERIOD(S) IN SIMULATION
 MODEL TIME UNIT IS SECONDS
 MODEL LENGTH UNIT IS METERS
  Confining bed flag for each layer:
   0   0   0

                     DELR =   2.00000    

                     DELC =   1.50000    

 TOP ELEVATION OF LAYER 1 =   40.0000    

   MODEL LAYER BOTTOM EL. =   32.0000     FOR LAYER   1

   MODEL LAYER BOTTOM EL. =   18.0000     FOR LAYER   2

   MODEL LAYER BOTTOM EL. =   0.00000     FOR LAYER   3


 STRESS PERIOD     LENGTH       TIME STEPS     MULTIPLIER FOR DELT    SS FLAG
 ----------------------------------------------------------------------------
        1         1.000000          1                    1.000         SS

 STEADY-STATE SIMULATION



 
 # Basic Package file created                                                    
 THE FREE FORMAT OPTION HAS BEEN SELECTED

           BOUNDARY ARRAY =              1 FOR LAYER   1

           BOUNDARY ARRAY =              1 FOR LAYER   2

           BOUNDARY ARRAY =              1 FOR LAYER   3

 AQUIFER HEAD WILL BE SET TO  999.00     AT ALL NO-FLOW NODES (IBOUND=0).

             INITIAL HEAD =   60.0000     FOR LAYER   1

             INITIAL HEAD =   60.0000     FOR LAYER   2

             INITIAL HEAD =   60.0000     FOR LAYER   3

 OUTPUT CONTROL IS SPECIFIED ONLY AT TIME STEPS FOR WHICH OUTPUT IS DESIRED
 HEAD PRINT FORMAT CODE IS   0    DRAWDOWN PRINT FORMAT CODE IS   0
 HEADS WILL BE SAVED ON UNIT   30    DRAWDOWNS WILL BE SAVED ON UNIT   31

 ZONE OPTION, INPUT READ FROM UNIT   13
 # Zone (ZONE) File
     3 ZONE ARRAYS

 MULTIPLIER OPTION, INPUT READ FROM UNIT    8
 # Multiplier (MULT)
   3 MULTIPLIER ARRAYS



            MULT. ARRAY: HK_Par1_M1
 READING ON UNIT    8 WITH FORMAT: (FREE)              

            1           2           3           4           5           6           7           8           9          10
           11          12          13          14          15          16          17          18          19          20
           21          22          23          24          25          26          27          28          29          30
           31          32          33          34          35
 ........................................................................................................................
   1   1.0466E-03  1.0592E-03  1.0738E-03  1.0902E-03  1.1083E-03  1.1273E-03  1.1467E-03  1.1655E-03  1.1831E-03  1.1985E-03
       1.2111E-03  1.2203E-03  1.2255E-03  1.2265E-03  1.2232E-03  1.2158E-03  1.2046E-03  1.1903E-03  1.1737E-03  1.1559E-03
       1.1381E-03  1.1216E-03  1.1067E-03  1.0937E-03  1.0825E-03  1.0728E-03  1.0643E-03  1.0569E-03  1.0504E-03  1.0446E-03
       1.0393E-03  1.0345E-03  1.0299E-03  1.0254E-03  1.0211E-03
   2   1.0389E-03  1.0516E-03  1.0666E-03  1.0838E-03  1.1029E-03  1.1233E-03  1.1441E-03  1.1645E-03  1.1835E-03  1.2002E-03
       1.2139E-03  1.2238E-03  1.2294E-03  1.2304E-03  1.2267E-03  1.2186E-03  1.2064E-03  1.1907E-03  1.1725E-03  1.1530E-03
       1.1337E-03  1.1160E-03  1.1005E-03  1.0873E-03  1.0760E-03  1.0664E-03  1.0581E-03  1.0509E-03  1.0446E-03  1.0391E-03
       1.0341E-03  1.0295E-03  1.0251E-03  1.0208E-03  1.0166E-03
   3   1.0305E-03  1.0432E-03  1.0585E-03  1.0764E-03  1.0965E-03  1.1181E-03  1.1403E-03  1.1621E-03  1.1825E-03  1.2006E-03
       1.2153E-03  1.2259E-03  1.2318E-03  1.2328E-03  1.2287E-03  1.2198E-03  1.2065E-03  1.1896E-03  1.1699E-03  1.1488E-03
       1.1281E-03  1.1095E-03  1.0936E-03  1.0802E-03  1.0690E-03  1.0596E-03  1.0515E-03  1.0446E-03  1.0386E-03  1.0333E-03
       1.0285E-03  1.0242E-03  1.0200E-03  1.0159E-03  1.0119E-03
   4   1.0215E-03  1.0341E-03  1.0496E-03  1.0679E-03  1.0889E-03  1.1117E-03  1.1352E-03  1.1583E-03  1.1801E-03  1.1994E-03
       1.2151E-03  1.2264E-03  1.2325E-03  1.2333E-03  1.2287E-03  1.2190E-03  1.2048E-03  1.1868E-03  1.1658E-03  1.1432E-03
       1.1211E-03  1.1019E-03  1.0859E-03  1.0726E-03  1.0616E-03  1.0524E-03  1.0446E-03  1.0380E-03  1.0322E-03  1.0272E-03
       1.0228E-03  1.0187E-03  1.0147E-03  1.0108E-03  1.0069E-03
   5   1.0119E-03  1.0243E-03  1.0398E-03  1.0585E-03  1.0802E-03  1.1040E-03  1.1287E-03  1.1532E-03  1.1763E-03  1.1968E-03
       1.2134E-03  1.2251E-03  1.2314E-03  1.2319E-03  1.2267E-03  1.2161E-03  1.2008E-03  1.1817E-03  1.1596E-03  1.1357E-03
       1.1126E-03  1.0932E-03  1.0775E-03  1.0645E-03  1.0539E-03  1.0450E-03  1.0375E-03  1.0311E-03  1.0257E-03  1.0209E-03
       1.0168E-03  1.0129E-03  1.0092E-03  1.0055E-03  1.0018E-03
   6   1.0018E-03  1.0139E-03  1.0293E-03  1.0482E-03  1.0705E-03  1.0951E-03  1.1209E-03  1.1468E-03  1.1712E-03  1.1928E-03
       1.2102E-03  1.2223E-03  1.2286E-03  1.2286E-03  1.2226E-03  1.2109E-03  1.1945E-03  1.1741E-03  1.1510E-03  1.1259E-03
       1.1027E-03  1.0839E-03  1.0686E-03  1.0561E-03  1.0458E-03  1.0373E-03  1.0302E-03  1.0241E-03  1.0190E-03  1.0145E-03
       1.0105E-03  1.0069E-03  1.0034E-03  9.9992E-04  9.9645E-04
   7   9.9132E-04  1.0029E-03  1.0181E-03  1.0372E-03  1.0598E-03  1.0851E-03  1.1120E-03  1.1391E-03  1.1648E-03  1.1875E-03
       1.2056E-03  1.2181E-03  1.2241E-03  1.2235E-03  1.2165E-03  1.2037E-03  1.1859E-03  1.1643E-03  1.1400E-03  1.1147E-03
       1.0925E-03  1.0742E-03  1.0595E-03  1.0475E-03  1.0377E-03  1.0295E-03  1.0227E-03  1.0170E-03  1.0121E-03  1.0079E-03
       1.0042E-03  1.0008E-03  9.9746E-04  9.9421E-04  9.9097E-04
   8   9.8054E-04  9.9156E-04  1.0064E-03  1.0254E-03  1.0482E-03  1.0742E-03  1.1022E-03  1.1305E-03  1.1575E-03  1.1812E-03
       1.2000E-03  1.2126E-03  1.2183E-03  1.2169E-03  1.2088E-03  1.1947E-03  1.1756E-03  1.1529E-03  1.1282E-03  1.1036E-03
       1.0822E-03  1.0646E-03  1.0504E-03  1.0388E-03  1.0294E-03  1.0216E-03  1.0151E-03  1.0097E-03  1.0051E-03  1.0011E-03
       9.9764E-04  9.9444E-04  9.9137E-04  9.8834E-04  9.8534E-04
   9   9.6961E-04  9.7992E-04  9.9431E-04  1.0131E-03  1.0361E-03  1.0626E-03  1.0915E-03  1.1212E-03  1.1494E-03  1.1741E-03
       1.1934E-03  1.2060E-03  1.2112E-03  1.2090E-03  1.1997E-03  1.1844E-03  1.1643E-03  1.1409E-03  1.1162E-03  1.0925E-03
       1.0719E-03  1.0550E-03  1.0413E-03  1.0302E-03  1.0212E-03  1.0137E-03  1.0075E-03  1.0024E-03  9.9801E-04  9.9428E-04
       9.9100E-04  9.8800E-04  9.8515E-04  9.8236E-04  9.7960E-04
  10   9.5868E-04  9.6818E-04  9.8198E-04  1.0004E-03  1.0235E-03  1.0505E-03  1.0804E-03  1.1113E-03  1.1409E-03  1.1665E-03
       1.1863E-03  1.1987E-03  1.2033E-03  1.2000E-03  1.1895E-03  1.1731E-03  1.1522E-03  1.1285E-03  1.1042E-03  1.0814E-03
       1.0618E-03  1.0455E-03  1.0324E-03  1.0217E-03  1.0129E-03  1.0058E-03  9.9987E-04  9.9496E-04  9.9084E-04  9.8733E-04
       9.8426E-04  9.8147E-04  9.7884E-04  9.7628E-04  9.7377E-04
  11   9.4796E-04  9.5658E-04  9.6969E-04  9.8773E-04  1.0107E-03  1.0381E-03  1.0690E-03  1.1012E-03  1.1321E-03  1.1587E-03
       1.1787E-03  1.1908E-03  1.1946E-03  1.1902E-03  1.1785E-03  1.1610E-03  1.1395E-03  1.1158E-03  1.0920E-03  1.0703E-03
       1.0516E-03  1.0362E-03  1.0236E-03  1.0132E-03  1.0048E-03  9.9787E-04  9.9219E-04  9.8751E-04  9.8360E-04  9.8030E-04
       9.7743E-04  9.7485E-04  9.7244E-04  9.7013E-04  9.6786E-04
  12   9.3764E-04  9.4536E-04  9.5773E-04  9.7527E-04  9.9806E-04  1.0258E-03  1.0575E-03  1.0911E-03  1.1234E-03  1.1508E-03
       1.1709E-03  1.1825E-03  1.1852E-03  1.1797E-03  1.1668E-03  1.1483E-03  1.1263E-03  1.1028E-03  1.0797E-03  1.0592E-03
       1.0417E-03  1.0270E-03  1.0149E-03  1.0049E-03  9.9670E-04  9.8998E-04  9.8450E-04  9.8001E-04  9.7631E-04  9.7321E-04
       9.7054E-04  9.6818E-04  9.6600E-04  9.6392E-04  9.6191E-04
  13   9.2795E-04  9.3477E-04  9.4640E-04  9.6339E-04  9.8588E-04  1.0137E-03  1.0461E-03  1.0812E-03  1.1149E-03  1.1429E-03
       1.1628E-03  1.1736E-03  1.1753E-03  1.1686E-03  1.1546E-03  1.1351E-03  1.1125E-03  1.0891E-03  1.0673E-03  1.0483E-03
       1.0319E-03  1.0180E-03  1.0064E-03  9.9667E-04  9.8866E-04  9.8211E-04  9.7678E-04  9.7247E-04  9.6896E-04  9.6606E-04
       9.6360E-04  9.6145E-04  9.5951E-04  9.5768E-04  9.5593E-04
  14   9.1911E-04  9.2509E-04  9.3603E-04  9.5248E-04  9.7460E-04  1.0023E-03  1.0353E-03  1.0717E-03  1.1067E-03  1.1350E-03
       1.1543E-03  1.1642E-03  1.1648E-03  1.1570E-03  1.1420E-03  1.1217E-03  1.0986E-03  1.0756E-03  1.0554E-03  1.0377E-03
       1.0224E-03  1.0092E-03  9.9794E-04  9.8850E-04  9.8065E-04  9.7421E-04  9.6903E-04  9.6488E-04  9.6155E-04  9.5886E-04
       9.5662E-04  9.5470E-04  9.5299E-04  9.5142E-04  9.4993E-04
  15   9.1128E-04  9.1656E-04  9.2693E-04  9.4294E-04  9.6471E-04  9.9216E-04  1.0252E-03  1.0628E-03  1.0988E-03  1.1268E-03
       1.1451E-03  1.1539E-03  1.1536E-03  1.1450E-03  1.1294E-03  1.1086E-03  1.0854E-03  1.0635E-03  1.0445E-03  1.0278E-03
       1.0132E-03  1.0005E-03  9.8957E-04  9.8031E-04  9.7259E-04  9.6626E-04  9.6121E-04  9.5723E-04  9.5410E-04  9.5161E-04
       9.4960E-04  9.4793E-04  9.4647E-04  9.4516E-04  9.4394E-04
  16   9.0464E-04  9.0935E-04  9.1933E-04  9.3510E-04  9.5670E-04  9.8391E-04  1.0165E-03  1.0545E-03  1.0908E-03  1.1177E-03
       1.1348E-03  1.1425E-03  1.1414E-03  1.1325E-03  1.1169E-03  1.0964E-03  1.0736E-03  1.0527E-03  1.0346E-03  1.0185E-03
       1.0043E-03  9.9182E-04  9.8109E-04  9.7199E-04  9.6440E-04  9.5819E-04  9.5328E-04  9.4949E-04  9.4658E-04  9.4433E-04
       9.4257E-04  9.4115E-04  9.3996E-04  9.3892E-04  9.3798E-04
  17   8.9930E-04  9.0360E-04  9.1339E-04  9.2916E-04  9.5086E-04  9.7813E-04  1.0106E-03  1.0470E-03  1.0813E-03  1.1071E-03
       1.1232E-03  1.1300E-03  1.1283E-03  1.1193E-03  1.1045E-03  1.0851E-03  1.0632E-03  1.0433E-03  1.0255E-03  1.0095E-03
       9.9532E-04  9.8295E-04  9.7234E-04  9.6340E-04  9.5598E-04  9.4994E-04  9.4522E-04  9.4166E-04  9.3900E-04  9.3702E-04
       9.3553E-04  9.3439E-04  9.3348E-04  9.3272E-04  9.3206E-04
  18   8.9531E-04  8.9934E-04  9.0911E-04  9.2511E-04  9.4713E-04  9.7451E-04  1.0063E-03  1.0404E-03  1.0719E-03  1.0959E-03
       1.1106E-03  1.1163E-03  1.1140E-03  1.1053E-03  1.0915E-03  1.0743E-03  1.0547E-03  1.0348E-03  1.0166E-03  1.0003E-03
       9.8599E-04  9.7364E-04  9.6315E-04  9.5439E-04  9.4720E-04  9.4144E-04  9.3701E-04  9.3374E-04  9.3137E-04  9.2969E-04
       9.2850E-04  9.2766E-04  9.2705E-04  9.2658E-04  9.2621E-04
  19   8.9271E-04  8.9657E-04  9.0646E-04  9.2282E-04  9.4525E-04  9.7265E-04  1.0034E-03  1.0349E-03  1.0633E-03  1.0847E-03
       1.0976E-03  1.1019E-03  1.0989E-03  1.0901E-03  1.0774E-03  1.0622E-03  1.0452E-03  1.0256E-03  1.0070E-03  9.9035E-04
       9.7595E-04  9.6369E-04  9.5341E-04  9.4493E-04  9.3808E-04  9.3269E-04  9.2864E-04  9.2573E-04  9.2371E-04  9.2236E-04
       9.2150E-04  9.2098E-04  9.2068E-04  9.2052E-04  9.2044E-04
  20   8.9151E-04  8.9527E-04  9.0531E-04  9.2211E-04  9.4500E-04  9.7233E-04  1.0018E-03  1.0307E-03  1.0558E-03  1.0743E-03
       1.0848E-03  1.0874E-03  1.0832E-03  1.0740E-03  1.0617E-03  1.0478E-03  1.0323E-03  1.0140E-03  9.9569E-04  9.7920E-04
       9.6499E-04  9.5302E-04  9.4310E-04  9.3505E-04  9.2865E-04  9.2375E-04  9.2016E-04  9.1766E-04  9.1604E-04  9.1506E-04
       9.1456E-04  9.1438E-04  9.1441E-04  9.1456E-04  9.1477E-04
  21   8.9177E-04  8.9540E-04  9.0559E-04  9.2283E-04  9.4623E-04  9.7346E-04  1.0016E-03  1.0279E-03  1.0497E-03  1.0651E-03
       1.0729E-03  1.0733E-03  1.0676E-03  1.0573E-03  1.0447E-03  1.0312E-03  1.0169E-03  9.9996E-04  9.8259E-04  9.6674E-04
       9.5309E-04  9.4166E-04  9.3230E-04  9.2482E-04  9.1900E-04  9.1466E-04  9.1160E-04  9.0959E-04  9.0840E-04  9.0783E-04
       9.0771E-04  9.0789E-04  9.0826E-04  9.0872E-04  9.0924E-04
  22   8.9355E-04  8.9704E-04  9.0727E-04  9.2487E-04  9.4883E-04  9.7602E-04  1.0028E-03  1.0265E-03  1.0451E-03  1.0571E-03
       1.0621E-03  1.0602E-03  1.0526E-03  1.0409E-03  1.0273E-03  1.0133E-03  9.9976E-04  9.8405E-04  9.6798E-04  9.5321E-04
       9.4043E-04  9.2977E-04  9.2113E-04  9.1435E-04  9.0921E-04  9.0552E-04  9.0304E-04  9.0155E-04  9.0084E-04  9.0071E-04
       9.0099E-04  9.0154E-04  9.0225E-04  9.0304E-04  9.0385E-04
  23   8.9697E-04  9.0031E-04  9.1042E-04  9.2819E-04  9.5273E-04  9.7992E-04  1.0052E-03  1.0263E-03  1.0417E-03  1.0507E-03
       1.0528E-03  1.0486E-03  1.0390E-03  1.0257E-03  1.0105E-03  9.9530E-04  9.8127E-04  9.6715E-04  9.5260E-04  9.3912E-04
       9.2738E-04  9.1762E-04  9.0979E-04  9.0378E-04  8.9939E-04  8.9639E-04  8.9454E-04  8.9361E-04  8.9340E-04  8.9373E-04
       8.9443E-04  8.9536E-04  8.9642E-04  8.9753E-04  8.9863E-04
  24   9.0219E-04  9.0546E-04  9.1530E-04  9.3285E-04  9.5785E-04  9.8496E-04  1.0086E-03  1.0270E-03  1.0396E-03  1.0457E-03
       1.0452E-03  1.0388E-03  1.0273E-03  1.0124E-03  9.9582E-04  9.7932E-04  9.6410E-04  9.5065E-04  9.3741E-04  9.2511E-04
       9.1439E-04  9.0552E-04  8.9853E-04  8.9330E-04  8.8967E-04  8.8740E-04  8.8620E-04  8.8585E-04  8.8616E-04  8.8696E-04
       8.8808E-04  8.8939E-04  8.9080E-04  8.9222E-04  8.9361E-04
  25   9.0935E-04  9.1278E-04  9.2239E-04  9.3925E-04  9.6407E-04  9.9069E-04  1.0123E-03  1.0285E-03  1.0385E-03  1.0422E-03
       1.0395E-03  1.0310E-03  1.0179E-03  1.0015E-03  9.8372E-04  9.6614E-04  9.5011E-04  9.3615E-04  9.2337E-04  9.1183E-04
       9.0191E-04  8.9382E-04  8.8758E-04  8.8309E-04  8.8020E-04  8.7865E-04  8.7810E-04  8.7834E-04  8.7918E-04  8.8044E-04
       8.8198E-04  8.8367E-04  8.8542E-04  8.8715E-04  8.8881E-04
  26   9.1844E-04  9.2238E-04  9.3211E-04  9.4862E-04  9.7158E-04  9.9607E-04  1.0162E-03  1.0305E-03  1.0386E-03  1.0403E-03
       1.0357E-03  1.0255E-03  1.0109E-03  9.9330E-04  9.7436E-04  9.5576E-04  9.3879E-04  9.2400E-04  9.1102E-04  8.9976E-04
       8.9034E-04  8.8283E-04  8.7721E-04  8.7336E-04  8.7112E-04  8.7025E-04  8.7034E-04  8.7116E-04  8.7251E-04  8.7423E-04
       8.7618E-04  8.7824E-04  8.8031E-04  8.8233E-04  8.8426E-04
  27   9.2928E-04  9.3400E-04  9.4400E-04  9.5987E-04  9.8065E-04  1.0025E-03  1.0207E-03  1.0334E-03  1.0399E-03  1.0399E-03
       1.0339E-03  1.0223E-03  1.0065E-03  9.8767E-04  9.6764E-04  9.4796E-04  9.2991E-04  9.1411E-04  9.0056E-04  8.8919E-04
       8.7996E-04  8.7282E-04  8.6767E-04  8.6434E-04  8.6262E-04  8.6232E-04  8.6304E-04  8.6442E-04  8.6626E-04  8.6841E-04
       8.7074E-04  8.7313E-04  8.7550E-04  8.7779E-04  8.7996E-04
  28   9.4151E-04  9.4716E-04  9.5739E-04  9.7242E-04  9.9104E-04  1.0102E-03  1.0264E-03  1.0375E-03  1.0425E-03  1.0413E-03
       1.0340E-03  1.0214E-03  1.0044E-03  9.8454E-04  9.6339E-04  9.4254E-04  9.2326E-04  9.0633E-04  8.9199E-04  8.8023E-04
       8.7095E-04  8.6400E-04  8.5918E-04  8.5625E-04  8.5498E-04  8.5511E-04  8.5634E-04  8.5821E-04  8.6049E-04  8.6303E-04
       8.6570E-04  8.6839E-04  8.7104E-04  8.7357E-04  8.7596E-04
  29   9.5472E-04  9.6133E-04  9.7174E-04  9.8587E-04  1.0025E-03  1.0192E-03  1.0333E-03  1.0428E-03  1.0466E-03  1.0443E-03
       1.0361E-03  1.0226E-03  1.0047E-03  9.8377E-04  9.6146E-04  9.3932E-04  9.1871E-04  9.0054E-04  8.8525E-04  8.7291E-04
       8.6340E-04  8.5648E-04  8.5187E-04  8.4925E-04  8.4834E-04  8.4884E-04  8.5042E-04  8.5267E-04  8.5530E-04  8.5816E-04
       8.6111E-04  8.6406E-04  8.6694E-04  8.6968E-04  8.7226E-04
  30   9.6849E-04  9.7604E-04  9.8658E-04  9.9985E-04  1.0147E-03  1.0293E-03  1.0414E-03  1.0494E-03  1.0521E-03  1.0490E-03
       1.0400E-03  1.0257E-03  1.0070E-03  9.8518E-04  9.6168E-04  9.3816E-04  9.1610E-04  8.9659E-04  8.8023E-04  8.6719E-04
       8.5733E-04  8.5033E-04  8.4582E-04  8.4342E-04  8.4278E-04  8.4355E-04  8.4538E-04  8.4787E-04  8.5076E-04  8.5386E-04
       8.5703E-04  8.6018E-04  8.6324E-04  8.6615E-04  8.6889E-04
  31   9.8239E-04  9.9084E-04  1.0015E-03  1.0140E-03  1.0273E-03  1.0400E-03  1.0504E-03  1.0571E-03  1.0588E-03  1.0550E-03
       1.0455E-03  1.0307E-03  1.0113E-03  9.8857E-04  9.6388E-04  9.3890E-04  9.1528E-04  8.9432E-04  8.7682E-04  8.6301E-04
       8.5272E-04  8.4556E-04  8.4107E-04  8.3879E-04  8.3832E-04  8.3926E-04  8.4124E-04  8.4389E-04  8.4693E-04  8.5017E-04
       8.5348E-04  8.5677E-04  8.5996E-04  8.6300E-04  8.6586E-04
  32   9.9605E-04  1.0053E-03  1.0161E-03  1.0279E-03  1.0399E-03  1.0510E-03  1.0599E-03  1.0654E-03  1.0663E-03  1.0620E-03
       1.0522E-03  1.0371E-03  1.0172E-03  9.9370E-04  9.6784E-04  9.4137E-04  9.1609E-04  8.9359E-04  8.7489E-04  8.6026E-04
       8.4950E-04  8.4213E-04  8.3760E-04  8.3537E-04  8.3497E-04  8.3599E-04  8.3802E-04  8.4073E-04  8.4383E-04  8.4713E-04
       8.5050E-04  8.5386E-04  8.5712E-04  8.6024E-04  8.6319E-04
  33   1.0091E-03  1.0191E-03  1.0301E-03  1.0413E-03  1.0521E-03  1.0618E-03  1.0694E-03  1.0740E-03  1.0743E-03  1.0697E-03
       1.0597E-03  1.0445E-03  1.0244E-03  1.0002E-03  9.7334E-04  9.4536E-04  9.1833E-04  8.9423E-04  8.7429E-04  8.5886E-04
       8.4763E-04  8.4002E-04  8.3538E-04  8.3312E-04  8.3272E-04  8.3373E-04  8.3574E-04  8.3841E-04  8.4148E-04  8.4476E-04
       8.4811E-04  8.5146E-04  8.5474E-04  8.5789E-04  8.6089E-04
  34   1.0212E-03  1.0319E-03  1.0429E-03  1.0537E-03  1.0634E-03  1.0719E-03  1.0786E-03  1.0823E-03  1.0822E-03  1.0774E-03
       1.0675E-03  1.0524E-03  1.0322E-03  1.0078E-03  9.8005E-04  9.5064E-04  9.2182E-04  8.9604E-04  8.7488E-04  8.5870E-04
       8.4704E-04  8.3918E-04  8.3440E-04  8.3204E-04  8.3155E-04  8.3246E-04  8.3436E-04  8.3692E-04  8.3989E-04  8.4306E-04
       8.4631E-04  8.4959E-04  8.5282E-04  8.5596E-04  8.5896E-04
  35   1.0321E-03  1.0432E-03  1.0542E-03  1.0646E-03  1.0736E-03  1.0810E-03  1.0869E-03  1.0900E-03  1.0896E-03  1.0847E-03
       1.0749E-03  1.0601E-03  1.0402E-03  1.0158E-03  9.8756E-04  9.5693E-04  9.2630E-04  8.9883E-04  8.7655E-04  8.5972E-04
       8.4768E-04  8.3958E-04  8.3461E-04  8.3208E-04  8.3142E-04  8.3214E-04  8.3386E-04  8.3624E-04  8.3903E-04  8.4202E-04
       8.4510E-04  8.4824E-04  8.5137E-04  8.5445E-04  8.5741E-04
  36   1.0415E-03  1.0528E-03  1.0637E-03  1.0737E-03  1.0820E-03  1.0888E-03  1.0939E-03  1.0965E-03  1.0957E-03  1.0908E-03
       1.0813E-03  1.0669E-03  1.0476E-03  1.0235E-03  9.9528E-04  9.6385E-04  9.3152E-04  9.0244E-04  8.7922E-04  8.6190E-04
       8.4956E-04  8.4120E-04  8.3599E-04  8.3321E-04  8.3229E-04  8.3275E-04  8.3420E-04  8.3632E-04  8.3886E-04  8.4162E-04
       8.4447E-04  8.4740E-04  8.5039E-04  8.5335E-04  8.5624E-04
  37   1.0493E-03  1.0605E-03  1.0712E-03  1.0807E-03  1.0886E-03  1.0948E-03  1.0993E-03  1.1013E-03  1.1002E-03  1.0953E-03
       1.0861E-03  1.0722E-03  1.0535E-03  1.0301E-03  1.0024E-03  9.7087E-04  9.3719E-04  9.0672E-04  8.8291E-04  8.6527E-04
       8.5265E-04  8.4401E-04  8.3848E-04  8.3537E-04  8.3410E-04  8.3421E-04  8.3531E-04  8.3710E-04  8.3933E-04  8.4181E-04
       8.4439E-04  8.4707E-04  8.4986E-04  8.5267E-04  8.5544E-04
  38   1.0554E-03  1.0664E-03  1.0766E-03  1.0855E-03  1.0930E-03  1.0987E-03  1.1025E-03  1.1040E-03  1.1026E-03  1.0976E-03
       1.0885E-03  1.0751E-03  1.0571E-03  1.0346E-03  1.0078E-03  9.7703E-04  9.4301E-04  9.1166E-04  8.8772E-04  8.6988E-04
       8.5697E-04  8.4797E-04  8.4205E-04  8.3850E-04  8.3679E-04  8.3645E-04  8.3713E-04  8.3851E-04  8.4037E-04  8.4251E-04
       8.4480E-04  8.4722E-04  8.4977E-04  8.5238E-04  8.5500E-04
  39   1.0598E-03  1.0703E-03  1.0799E-03  1.0883E-03  1.0951E-03  1.1003E-03  1.1035E-03  1.1044E-03  1.1026E-03  1.0974E-03
       1.0884E-03  1.0754E-03  1.0580E-03  1.0364E-03  1.0104E-03  9.8056E-04  9.4810E-04  9.1774E-04  8.9372E-04  8.7566E-04
       8.6241E-04  8.5299E-04  8.4657E-04  8.4251E-04  8.4026E-04  8.3940E-04  8.3957E-04  8.4049E-04  8.4191E-04  8.4367E-04
       8.4564E-04  8.4779E-04  8.5008E-04  8.5247E-04  8.5490E-04
  40   1.0626E-03  1.0724E-03  1.0813E-03  1.0890E-03  1.0952E-03  1.0996E-03  1.1022E-03  1.1025E-03  1.1002E-03  1.0947E-03
       1.0857E-03  1.0729E-03  1.0561E-03  1.0352E-03  1.0104E-03  9.8216E-04  9.5206E-04  9.2376E-04  9.0042E-04  8.8236E-04
       8.6880E-04  8.5889E-04  8.5191E-04  8.4724E-04  8.4439E-04  8.4294E-04  8.4255E-04  8.4295E-04  8.4391E-04  8.4526E-04
       8.4689E-04  8.4873E-04  8.5075E-04  8.5290E-04  8.5512E-04



            MULT. ARRAY: HK_Par1_M2
 READING ON UNIT    8 WITH FORMAT: (FREE)              

            1           2           3           4           5           6           7           8           9          10
           11          12          13          14          15          16          17          18          19          20
           21          22          23          24          25          26          27          28          29          30
           31          32          33          34          35
 ........................................................................................................................
   1   5.7791E-05  5.7904E-05  5.7998E-05  5.8068E-05  5.8114E-05  5.8140E-05  5.8149E-05  5.8138E-05  5.8106E-05  5.8045E-05
       5.7953E-05  5.7824E-05  5.7656E-05  5.7450E-05  5.7207E-05  5.6933E-05  5.6639E-05  5.6336E-05  5.6040E-05  5.5761E-05
       5.5498E-05  5.5238E-05  5.4968E-05  5.4684E-05  5.4384E-05  5.4071E-05  5.3749E-05  5.3420E-05  5.3088E-05  5.2755E-05
       5.2426E-05  5.2105E-05  5.1798E-05  5.1506E-05  5.1229E-05
   2   5.7977E-05  5.8116E-05  5.8235E-05  5.8330E-05  5.8402E-05  5.8455E-05  5.8495E-05  5.8519E-05  5.8523E-05  5.8500E-05
       5.8444E-05  5.8349E-05  5.8211E-05  5.8027E-05  5.7798E-05  5.7527E-05  5.7223E-05  5.6898E-05  5.6574E-05  5.6268E-05
       5.5983E-05  5.5699E-05  5.5396E-05  5.5072E-05  5.4730E-05  5.4375E-05  5.4012E-05  5.3645E-05  5.3276E-05  5.2909E-05
       5.2547E-05  5.2198E-05  5.1866E-05  5.1554E-05  5.1261E-05
   3   5.8162E-05  5.8329E-05  5.8478E-05  5.8604E-05  5.8707E-05  5.8793E-05  5.8872E-05  5.8942E-05  5.8994E-05  5.9021E-05
       5.9016E-05  5.8971E-05  5.8879E-05  5.8736E-05  5.8538E-05  5.8285E-05  5.7979E-05  5.7635E-05  5.7274E-05  5.6928E-05
       5.6610E-05  5.6284E-05  5.5929E-05  5.5546E-05  5.5144E-05  5.4732E-05  5.4316E-05  5.3901E-05  5.3488E-05  5.3080E-05
       5.2681E-05  5.2299E-05  5.1940E-05  5.1606E-05  5.1295E-05
   4   5.8343E-05  5.8541E-05  5.8724E-05  5.8886E-05  5.9025E-05  5.9152E-05  5.9280E-05  5.9405E-05  5.9518E-05  5.9609E-05
       5.9670E-05  5.9692E-05  5.9667E-05  5.9587E-05  5.9443E-05  5.9228E-05  5.8939E-05  5.8584E-05  5.8182E-05  5.7777E-05
       5.7411E-05  5.7017E-05  5.6579E-05  5.6111E-05  5.5628E-05  5.5143E-05  5.4661E-05  5.4188E-05  5.3724E-05  5.3270E-05
       5.2827E-05  5.2408E-05  5.2020E-05  5.1662E-05  5.1330E-05
   5   5.8517E-05  5.8746E-05  5.8966E-05  5.9170E-05  5.9352E-05  5.9528E-05  5.9716E-05  5.9906E-05  6.0089E-05  6.0257E-05
       6.0400E-05  6.0509E-05  6.0572E-05  6.0578E-05  6.0515E-05  6.0367E-05  6.0123E-05  5.9780E-05  5.9350E-05  5.8868E-05
       5.8425E-05  5.7912E-05  5.7349E-05  5.6765E-05  5.6178E-05  5.5602E-05  5.5042E-05  5.4500E-05  5.3977E-05  5.3472E-05
       5.2984E-05  5.2524E-05  5.2104E-05  5.1719E-05  5.1364E-05
   6   5.8679E-05  5.8942E-05  5.9200E-05  5.9448E-05  5.9683E-05  5.9921E-05  6.0173E-05  6.0436E-05  6.0701E-05  6.0957E-05
       6.1197E-05  6.1408E-05  6.1580E-05  6.1699E-05  6.1744E-05  6.1696E-05  6.1531E-05  6.1234E-05  6.0809E-05  6.0281E-05
       5.9664E-05  5.8962E-05  5.8229E-05  5.7496E-05  5.6784E-05  5.6100E-05  5.5449E-05  5.4829E-05  5.4241E-05  5.3680E-05
       5.3146E-05  5.2646E-05  5.2190E-05  5.1776E-05  5.1397E-05
   7   5.8828E-05  5.9125E-05  5.9422E-05  5.9717E-05  6.0012E-05  6.0317E-05  6.0642E-05  6.0985E-05  6.1338E-05  6.1693E-05
       6.2041E-05  6.2371E-05  6.2669E-05  6.2920E-05  6.3101E-05  6.3181E-05  6.3124E-05  6.2898E-05  6.2493E-05  6.1904E-05
       6.1052E-05  6.0120E-05  5.9185E-05  5.8282E-05  5.7427E-05  5.6623E-05  5.5871E-05  5.5167E-05  5.4507E-05  5.3887E-05
       5.3305E-05  5.2765E-05  5.2274E-05  5.1828E-05  5.1424E-05
   8   5.8960E-05  5.9290E-05  5.9628E-05  5.9974E-05  6.0331E-05  6.0707E-05  6.1110E-05  6.1537E-05  6.1986E-05  6.2446E-05
       6.2910E-05  6.3367E-05  6.3803E-05  6.4201E-05  6.4533E-05  6.4759E-05  6.4823E-05  6.4663E-05  6.4230E-05  6.3499E-05
       6.2461E-05  6.1311E-05  6.0170E-05  5.9089E-05  5.8083E-05  5.7153E-05  5.6294E-05  5.5502E-05  5.4768E-05  5.4086E-05
       5.3455E-05  5.2875E-05  5.2349E-05  5.1873E-05  5.1443E-05
   9   5.9072E-05  5.9435E-05  5.9815E-05  6.0212E-05  6.0631E-05  6.1079E-05  6.1561E-05  6.2077E-05  6.2623E-05  6.3191E-05
       6.3774E-05  6.4361E-05  6.4937E-05  6.5482E-05  6.5966E-05  6.6338E-05  6.6521E-05  6.6406E-05  6.5904E-05  6.5011E-05
       6.3800E-05  6.2460E-05  6.1132E-05  5.9879E-05  5.8725E-05  5.7668E-05  5.6703E-05  5.5821E-05  5.5012E-05  5.4270E-05
       5.3590E-05  5.2970E-05  5.2410E-05  5.1905E-05  5.1451E-05
  10   5.9160E-05  5.9556E-05  5.9976E-05  6.0423E-05  6.0903E-05  6.1420E-05  6.1981E-05  6.2585E-05  6.3227E-05  6.3903E-05
       6.4601E-05  6.5312E-05  6.6019E-05  6.6696E-05  6.7310E-05  6.7804E-05  6.8086E-05  6.8004E-05  6.7412E-05  6.6366E-05
       6.5004E-05  6.3507E-05  6.2019E-05  6.0615E-05  5.9324E-05  5.8148E-05  5.7081E-05  5.6112E-05  5.5232E-05  5.4431E-05
       5.3703E-05  5.3045E-05  5.2452E-05  5.1920E-05  5.1443E-05
  11   5.9221E-05  5.9647E-05  6.0105E-05  6.0599E-05  6.1135E-05  6.1719E-05  6.2355E-05  6.3043E-05  6.3778E-05  6.4553E-05
       6.5359E-05  6.6180E-05  6.6995E-05  6.7774E-05  6.8470E-05  6.9027E-05  6.9362E-05  6.9311E-05  6.8630E-05  6.7476E-05
       6.6010E-05  6.4401E-05  6.2791E-05  6.1264E-05  5.9854E-05  5.8572E-05  5.7412E-05  5.6363E-05  5.5415E-05  5.4560E-05
       5.3787E-05  5.3093E-05  5.2471E-05  5.1914E-05  5.1417E-05
  12   5.9251E-05  5.9704E-05  6.0196E-05  6.0732E-05  6.1319E-05  6.1963E-05  6.2668E-05  6.3433E-05  6.4252E-05  6.5117E-05
       6.6014E-05  6.6925E-05  6.7820E-05  6.8654E-05  6.9364E-05  6.9885E-05  7.0166E-05  7.0138E-05  6.9418E-05  6.8259E-05
       6.6769E-05  6.5107E-05  6.3418E-05  6.1798E-05  6.0294E-05  5.8922E-05  5.7681E-05  5.6561E-05  5.5554E-05  5.4648E-05
       5.3836E-05  5.3110E-05  5.2462E-05  5.1884E-05  5.1370E-05
  13   5.9246E-05  5.9723E-05  6.0244E-05  6.0816E-05  6.1446E-05  6.2141E-05  6.2905E-05  6.3737E-05  6.4629E-05  6.5569E-05
       6.6539E-05  6.7516E-05  6.8459E-05  6.9301E-05  6.9953E-05  7.0324E-05  7.0377E-05  7.0190E-05  6.9690E-05  6.8684E-05
       6.7263E-05  6.5605E-05  6.3880E-05  6.2201E-05  6.0627E-05  5.9184E-05  5.7876E-05  5.6696E-05  5.5638E-05  5.4690E-05
       5.3844E-05  5.3091E-05  5.2421E-05  5.1827E-05  5.1299E-05
  14   5.9205E-05  5.9699E-05  6.0242E-05  6.0842E-05  6.1506E-05  6.2242E-05  6.3054E-05  6.3941E-05  6.4891E-05  6.5888E-05
       6.6912E-05  6.7932E-05  6.8895E-05  6.9713E-05  7.0262E-05  7.0425E-05  7.0197E-05  6.9813E-05  6.9585E-05  6.8812E-05
       6.7512E-05  6.5900E-05  6.4172E-05  6.2461E-05  6.0841E-05  5.9346E-05  5.7987E-05  5.6760E-05  5.5661E-05  5.4679E-05
       5.3806E-05  5.3032E-05  5.2346E-05  5.1740E-05  5.1202E-05
  15   5.9122E-05  5.9629E-05  6.0188E-05  6.0807E-05  6.1495E-05  6.2258E-05  6.3103E-05  6.4030E-05  6.5022E-05  6.6057E-05
       6.7115E-05  6.8160E-05  6.9127E-05  6.9910E-05  7.0367E-05  7.0367E-05  6.9977E-05  6.9617E-05  6.9423E-05  6.8773E-05
       6.7570E-05  6.6010E-05  6.4296E-05  6.2575E-05  6.0930E-05  5.9402E-05  5.8006E-05  5.6745E-05  5.5616E-05  5.4610E-05
       5.3718E-05  5.2930E-05  5.2234E-05  5.1620E-05  5.1078E-05
  16   5.8998E-05  5.9511E-05  6.0078E-05  6.0706E-05  6.1405E-05  6.2183E-05  6.3045E-05  6.3994E-05  6.5008E-05  6.6062E-05
       6.7136E-05  6.8191E-05  6.9156E-05  6.9920E-05  7.0334E-05  7.0273E-05  6.9838E-05  6.9542E-05  6.9308E-05  6.8653E-05
       6.7482E-05  6.5955E-05  6.4262E-05  6.2545E-05  6.0890E-05  5.9345E-05  5.7928E-05  5.6646E-05  5.5499E-05  5.4479E-05
       5.3577E-05  5.2783E-05  5.2083E-05  5.1468E-05  5.0926E-05
  17   5.8829E-05  5.9342E-05  5.9908E-05  6.0537E-05  6.1235E-05  6.2013E-05  6.2876E-05  6.3824E-05  6.4838E-05  6.5895E-05
       6.6971E-05  6.8024E-05  6.8986E-05  6.9749E-05  7.0182E-05  7.0173E-05  6.9786E-05  6.9542E-05  6.9202E-05  6.8456E-05
       6.7261E-05  6.5747E-05  6.4074E-05  6.2371E-05  6.0722E-05  5.9175E-05  5.7751E-05  5.6461E-05  5.5307E-05  5.4284E-05
       5.3381E-05  5.2589E-05  5.1893E-05  5.1282E-05  5.0745E-05
  18   5.8616E-05  5.9122E-05  5.9679E-05  6.0297E-05  6.0983E-05  6.1746E-05  6.2593E-05  6.3521E-05  6.4516E-05  6.5557E-05
       6.6619E-05  6.7660E-05  6.8614E-05  6.9387E-05  6.9872E-05  6.9993E-05  6.9797E-05  6.9497E-05  6.8998E-05  6.8133E-05
       6.6894E-05  6.5385E-05  6.3737E-05  6.2058E-05  6.0427E-05  5.8890E-05  5.7472E-05  5.6188E-05  5.5040E-05  5.4024E-05
       5.3131E-05  5.2348E-05  5.1663E-05  5.1063E-05  5.0536E-05
  19   5.8359E-05  5.8850E-05  5.9390E-05  5.9987E-05  6.0649E-05  6.1383E-05  6.2197E-05  6.3089E-05  6.4048E-05  6.5056E-05
       6.6087E-05  6.7103E-05  6.8040E-05  6.8817E-05  6.9339E-05  6.9552E-05  6.9503E-05  6.9165E-05  6.8562E-05  6.7620E-05
       6.6357E-05  6.4864E-05  6.3250E-05  6.1608E-05  6.0007E-05  5.8494E-05  5.7095E-05  5.5828E-05  5.4698E-05  5.3701E-05
       5.2826E-05  5.2062E-05  5.1395E-05  5.0812E-05  5.0301E-05
  20   5.8058E-05  5.8528E-05  5.9043E-05  5.9609E-05  6.0234E-05  6.0926E-05  6.1693E-05  6.2534E-05  6.3442E-05  6.4401E-05
       6.5387E-05  6.6363E-05  6.7272E-05  6.8037E-05  6.8568E-05  6.8805E-05  6.8760E-05  6.8460E-05  6.7844E-05  6.6885E-05
       6.5633E-05  6.4178E-05  6.2616E-05  6.1025E-05  5.9469E-05  5.7992E-05  5.6625E-05  5.5387E-05  5.4286E-05  5.3317E-05
       5.2471E-05  5.1734E-05  5.1092E-05  5.0531E-05  5.0040E-05
  21   5.7714E-05  5.8157E-05  5.8640E-05  5.9166E-05  5.9744E-05  6.0382E-05  6.1089E-05  6.1867E-05  6.2710E-05  6.3606E-05
       6.4532E-05  6.5454E-05  6.6321E-05  6.7061E-05  6.7585E-05  6.7813E-05  6.7745E-05  6.7468E-05  6.6870E-05  6.5932E-05
       6.4722E-05  6.3328E-05  6.1836E-05  6.0315E-05  5.8818E-05  5.7391E-05  5.6066E-05  5.4868E-05  5.3807E-05  5.2878E-05
       5.2069E-05  5.1366E-05  5.0755E-05  5.0222E-05  4.9756E-05
  22   5.7330E-05  5.7741E-05  5.8183E-05  5.8662E-05  5.9183E-05  5.9758E-05  6.0395E-05  6.1099E-05  6.1867E-05  6.2686E-05
       6.3539E-05  6.4394E-05  6.5207E-05  6.5911E-05  6.6422E-05  6.6652E-05  6.6564E-05  6.6287E-05  6.5693E-05  6.4786E-05
       6.3636E-05  6.2323E-05  6.0920E-05  5.9484E-05  5.8062E-05  5.6697E-05  5.5425E-05  5.4278E-05  5.3268E-05  5.2388E-05
       5.1625E-05  5.0964E-05  5.0391E-05  4.9890E-05  4.9452E-05
  23   5.6909E-05  5.7282E-05  5.7679E-05  5.8103E-05  5.8560E-05  5.9062E-05  5.9622E-05  6.0244E-05  6.0926E-05  6.1659E-05
       6.2428E-05  6.3204E-05  6.3948E-05  6.4604E-05  6.5098E-05  6.5352E-05  6.5302E-05  6.4963E-05  6.4350E-05  6.3476E-05
       6.2397E-05  6.1178E-05  5.9877E-05  5.8542E-05  5.7210E-05  5.5918E-05  5.4710E-05  5.3624E-05  5.2675E-05  5.1854E-05
       5.1146E-05  5.0534E-05  5.0002E-05  4.9538E-05  4.9131E-05
  24   5.6455E-05  5.6784E-05  5.7131E-05  5.7495E-05  5.7882E-05  5.8306E-05  5.8781E-05  5.9315E-05  5.9905E-05  6.0545E-05
       6.1220E-05  6.1906E-05  6.2569E-05  6.3160E-05  6.3616E-05  6.3867E-05  6.3850E-05  6.3477E-05  6.2860E-05  6.2030E-05
       6.1031E-05  5.9914E-05  5.8726E-05  5.7501E-05  5.6270E-05  5.5064E-05  5.3928E-05  5.2915E-05  5.2039E-05  5.1287E-05
       5.0640E-05  5.0081E-05  4.9595E-05  4.9171E-05  4.8797E-05
  25   5.5970E-05  5.6253E-05  5.6544E-05  5.6845E-05  5.7159E-05  5.7499E-05  5.7888E-05  5.8329E-05  5.8822E-05  5.9363E-05
       5.9938E-05  6.0528E-05  6.1099E-05  6.1610E-05  6.2004E-05  6.2217E-05  6.2179E-05  6.1834E-05  6.1251E-05  6.0483E-05
       5.9572E-05  5.8560E-05  5.7486E-05  5.6377E-05  5.5255E-05  5.4143E-05  5.3089E-05  5.2163E-05  5.1371E-05  5.0696E-05
       5.0115E-05  4.9613E-05  4.9176E-05  4.8792E-05  4.8454E-05
  26   5.5461E-05  5.5693E-05  5.5925E-05  5.6159E-05  5.6397E-05  5.6657E-05  5.6955E-05  5.7301E-05  5.7696E-05  5.8135E-05
       5.8608E-05  5.9096E-05  5.9570E-05  5.9992E-05  6.0312E-05  6.0472E-05  6.0411E-05  6.0099E-05  5.9571E-05  5.8877E-05
       5.8057E-05  5.7149E-05  5.6185E-05  5.5188E-05  5.4176E-05  5.3167E-05  5.2206E-05  5.1383E-05  5.0687E-05  5.0093E-05
       4.9582E-05  4.9138E-05  4.8750E-05  4.8408E-05  4.8105E-05
  27   5.4934E-05  5.5113E-05  5.5284E-05  5.5447E-05  5.5610E-05  5.5787E-05  5.5996E-05  5.6248E-05  5.6544E-05  5.6883E-05
       5.7254E-05  5.7640E-05  5.8016E-05  5.8349E-05  5.8593E-05  5.8700E-05  5.8623E-05  5.8340E-05  5.7872E-05  5.7256E-05
       5.6527E-05  5.5719E-05  5.4858E-05  5.3965E-05  5.3057E-05  5.2141E-05  5.1304E-05  5.0600E-05  5.0003E-05  4.9490E-05
       4.9048E-05  4.8661E-05  4.8322E-05  4.8021E-05  4.7753E-05
  28   5.4394E-05  5.4520E-05  5.4629E-05  5.4722E-05  5.4808E-05  5.4903E-05  5.5025E-05  5.5184E-05  5.5385E-05  5.5626E-05
       5.5897E-05  5.6186E-05  5.6468E-05  5.6716E-05  5.6891E-05  5.6952E-05  5.6864E-05  5.6610E-05  5.6200E-05  5.5660E-05
       5.5020E-05  5.4307E-05  5.3544E-05  5.2749E-05  5.1938E-05  5.1137E-05  5.0437E-05  4.9842E-05  4.9335E-05  4.8900E-05
       4.8522E-05  4.8191E-05  4.7898E-05  4.7637E-05  4.7403E-05
  29   5.3847E-05  5.3922E-05  5.3970E-05  5.3994E-05  5.4003E-05  5.4017E-05  5.4053E-05  5.4124E-05  5.4235E-05  5.4383E-05
       5.4561E-05  5.4758E-05  5.4953E-05  5.5124E-05  5.5239E-05  5.5264E-05  5.5171E-05  5.4945E-05  5.4590E-05  5.4123E-05
       5.3568E-05  5.2946E-05  5.2279E-05  5.1585E-05  5.0883E-05  5.0209E-05  4.9621E-05  4.9121E-05  4.8695E-05  4.8329E-05
       4.8010E-05  4.7730E-05  4.7481E-05  4.7258E-05  4.7057E-05
  30   5.3299E-05  5.3325E-05  5.3315E-05  5.3271E-05  5.3206E-05  5.3141E-05  5.3095E-05  5.3083E-05  5.3109E-05  5.3172E-05
       5.3264E-05  5.3376E-05  5.3493E-05  5.3596E-05  5.3660E-05  5.3658E-05  5.3565E-05  5.3368E-05  5.3066E-05  5.2669E-05
       5.2194E-05  5.1662E-05  5.1090E-05  5.0498E-05  4.9906E-05  4.9349E-05  4.8859E-05  4.8442E-05  4.8087E-05  4.7782E-05
       4.7517E-05  4.7284E-05  4.7076E-05  4.6888E-05  4.6716E-05
  31   5.2754E-05  5.2734E-05  5.2671E-05  5.2563E-05  5.2426E-05  5.2284E-05  5.2162E-05  5.2074E-05  5.2023E-05  5.2008E-05
       5.2021E-05  5.2057E-05  5.2105E-05  5.2149E-05  5.2171E-05  5.2149E-05  5.2062E-05  5.1895E-05  5.1642E-05  5.1311E-05
       5.0915E-05  5.0468E-05  4.9989E-05  4.9494E-05  4.9007E-05  4.8551E-05  4.8149E-05  4.7805E-05  4.7513E-05  4.7262E-05
       4.7046E-05  4.6855E-05  4.6684E-05  4.6528E-05  4.6384E-05
  32   5.2216E-05  5.2155E-05  5.2043E-05  5.1877E-05  5.1671E-05  5.1457E-05  5.1266E-05  5.1110E-05  5.0990E-05  5.0904E-05
       5.0848E-05  5.0816E-05  5.0801E-05  5.0794E-05  5.0782E-05  5.0748E-05  5.0670E-05  5.0534E-05  5.0330E-05  5.0060E-05
       4.9736E-05  4.9370E-05  4.8978E-05  4.8575E-05  4.8181E-05  4.7814E-05  4.7489E-05  4.7210E-05  4.6973E-05  4.6771E-05
       4.6597E-05  4.6444E-05  4.6307E-05  4.6180E-05  4.6062E-05
  33   5.1687E-05  5.1590E-05  5.1435E-05  5.1217E-05  5.0948E-05  5.0669E-05  5.0416E-05  5.0201E-05  5.0021E-05  4.9873E-05
       4.9754E-05  4.9662E-05  4.9593E-05  4.9542E-05  4.9502E-05  4.9459E-05  4.9394E-05  4.9289E-05  4.9131E-05  4.8920E-05
       4.8662E-05  4.8370E-05  4.8057E-05  4.7737E-05  4.7424E-05  4.7134E-05  4.6877E-05  4.6655E-05  4.6467E-05  4.6308E-05
       4.6172E-05  4.6053E-05  4.5946E-05  4.5846E-05  4.5751E-05
  34   5.1168E-05  5.1038E-05  5.0848E-05  5.0588E-05  5.0264E-05  4.9926E-05  4.9623E-05  4.9358E-05  4.9126E-05  4.8924E-05
       4.8751E-05  4.8605E-05  4.8488E-05  4.8398E-05  4.8334E-05  4.8286E-05  4.8237E-05  4.8163E-05  4.8048E-05  4.7890E-05
       4.7693E-05  4.7467E-05  4.7224E-05  4.6976E-05  4.6734E-05  4.6510E-05  4.6311E-05  4.6139E-05  4.5995E-05  4.5873E-05
       4.5771E-05  4.5683E-05  4.5602E-05  4.5526E-05  4.5452E-05
  35   5.0661E-05  5.0500E-05  5.0279E-05  4.9989E-05  4.9622E-05  4.9238E-05  4.8896E-05  4.8589E-05  4.8312E-05  4.8064E-05
       4.7844E-05  4.7653E-05  4.7493E-05  4.7369E-05  4.7283E-05  4.7231E-05  4.7199E-05  4.7156E-05  4.7081E-05  4.6969E-05
       4.6825E-05  4.6658E-05  4.6476E-05  4.6290E-05  4.6108E-05  4.5940E-05  4.5791E-05  4.5662E-05  4.5555E-05  4.5467E-05
       4.5395E-05  4.5333E-05  4.5276E-05  4.5221E-05  4.5165E-05
  36   5.0166E-05  4.9977E-05  4.9727E-05  4.9408E-05  4.9023E-05  4.8617E-05  4.8241E-05  4.7898E-05  4.7584E-05  4.7297E-05
       4.7038E-05  4.6809E-05  4.6614E-05  4.6460E-05  4.6352E-05  4.6296E-05  4.6280E-05  4.6267E-05  4.6227E-05  4.6155E-05
       4.6057E-05  4.5939E-05  4.5809E-05  4.5675E-05  4.5544E-05  4.5423E-05  4.5315E-05  4.5224E-05  4.5149E-05  4.5090E-05
       4.5043E-05  4.5004E-05  4.4967E-05  4.4930E-05  4.4891E-05
  37   4.9686E-05  4.9472E-05  4.9198E-05  4.8860E-05  4.8466E-05  4.8052E-05  4.7655E-05  4.7285E-05  4.6942E-05  4.6626E-05
       4.6337E-05  4.6079E-05  4.5856E-05  4.5676E-05  4.5548E-05  4.5483E-05  4.5482E-05  4.5495E-05  4.5484E-05  4.5445E-05
       4.5384E-05  4.5306E-05  4.5219E-05  4.5128E-05  4.5039E-05  4.4956E-05  4.4884E-05  4.4824E-05  4.4776E-05  4.4740E-05
       4.4715E-05  4.4696E-05  4.4676E-05  4.4655E-05  4.4630E-05
  38   4.9226E-05  4.8990E-05  4.8699E-05  4.8350E-05  4.7955E-05  4.7540E-05  4.7133E-05  4.6747E-05  4.6386E-05  4.6050E-05
       4.5740E-05  4.5462E-05  4.5219E-05  4.5021E-05  4.4878E-05  4.4801E-05  4.4802E-05  4.4838E-05  4.4847E-05  4.4833E-05
       4.4801E-05  4.4756E-05  4.4702E-05  4.4645E-05  4.4590E-05  4.4539E-05  4.4495E-05  4.4460E-05  4.4435E-05  4.4419E-05
       4.4411E-05  4.4407E-05  4.4402E-05  4.4394E-05  4.4382E-05
  39   4.8787E-05  4.8535E-05  4.8232E-05  4.7880E-05  4.7489E-05  4.7079E-05  4.6672E-05  4.6281E-05  4.5910E-05  4.5564E-05
       4.5244E-05  4.4955E-05  4.4703E-05  4.4496E-05  4.4346E-05  4.4264E-05  4.4256E-05  4.4289E-05  4.4311E-05  4.4315E-05
       4.4304E-05  4.4282E-05  4.4255E-05  4.4224E-05  4.4194E-05  4.4167E-05  4.4146E-05  4.4132E-05  4.4124E-05  4.4124E-05
       4.4130E-05  4.4138E-05  4.4144E-05  4.4147E-05  4.4146E-05
  40   4.8372E-05  4.8108E-05  4.7800E-05  4.7450E-05  4.7067E-05  4.6668E-05  4.6268E-05  4.5880E-05  4.5509E-05  4.5162E-05
       4.4840E-05  4.4550E-05  4.4297E-05  4.4090E-05  4.3938E-05  4.3852E-05  4.3831E-05  4.3850E-05  4.3871E-05  4.3883E-05
       4.3885E-05  4.3880E-05  4.3871E-05  4.3859E-05  4.3848E-05  4.3839E-05  4.3835E-05  4.3836E-05  4.3843E-05  4.3854E-05
       4.3870E-05  4.3887E-05  4.3903E-05  4.3915E-05  4.3923E-05



            MULT. ARRAY: HK_Par1_M3
 READING ON UNIT    8 WITH FORMAT: (FREE)              

            1           2           3           4           5           6           7           8           9          10
           11          12          13          14          15          16          17          18          19          20
           21          22          23          24          25          26          27          28          29          30
           31          32          33          34          35
 ........................................................................................................................
   1   9.0470E-05  9.0448E-05  9.0384E-05  9.0290E-05  9.0194E-05  9.0139E-05  9.0169E-05  9.0320E-05  9.0616E-05  9.1072E-05
       9.1696E-05  9.2486E-05  9.3427E-05  9.4495E-05  9.5652E-05  9.6850E-05  9.8030E-05  9.9131E-05  1.0010E-04  1.0088E-04
       1.0146E-04  1.0182E-04  1.0199E-04  1.0199E-04  1.0186E-04  1.0164E-04  1.0135E-04  1.0101E-04  1.0066E-04  1.0029E-04
       9.9940E-05  9.9612E-05  9.9321E-05  9.9074E-05  9.8870E-05
   2   9.0649E-05  9.0626E-05  9.0548E-05  9.0427E-05  9.0296E-05  9.0205E-05  9.0210E-05  9.0352E-05  9.0657E-05  9.1142E-05
       9.1817E-05  9.2680E-05  9.3717E-05  9.4899E-05  9.6185E-05  9.7516E-05  9.8824E-05  1.0003E-04  1.0108E-04  1.0191E-04
       1.0250E-04  1.0285E-04  1.0297E-04  1.0290E-04  1.0270E-04  1.0240E-04  1.0203E-04  1.0162E-04  1.0119E-04  1.0076E-04
       1.0035E-04  9.9972E-05  9.9638E-05  9.9358E-05  9.9130E-05
   3   9.0852E-05  9.0832E-05  9.0747E-05  9.0607E-05  9.0444E-05  9.0321E-05  9.0308E-05  9.0447E-05  9.0767E-05  9.1288E-05
       9.2021E-05  9.2967E-05  9.4111E-05  9.5422E-05  9.6849E-05  9.8327E-05  9.9773E-05  1.0110E-04  1.0222E-04  1.0309E-04
       1.0369E-04  1.0400E-04  1.0406E-04  1.0391E-04  1.0362E-04  1.0323E-04  1.0277E-04  1.0228E-04  1.0178E-04  1.0128E-04
       1.0081E-04  1.0037E-04  9.9989E-05  9.9671E-05  9.9413E-05
   4   9.1078E-05  9.1065E-05  9.0981E-05  9.0829E-05  9.0639E-05  9.0490E-05  9.0465E-05  9.0608E-05  9.0947E-05  9.1509E-05
       9.2308E-05  9.3347E-05  9.4610E-05  9.6063E-05  9.7649E-05  9.9290E-05  1.0089E-04  1.0234E-04  1.0355E-04  1.0445E-04
       1.0504E-04  1.0530E-04  1.0527E-04  1.0502E-04  1.0463E-04  1.0414E-04  1.0359E-04  1.0301E-04  1.0242E-04  1.0185E-04
       1.0131E-04  1.0081E-04  1.0037E-04  1.0001E-04  9.9720E-05
   5   9.1322E-05  9.1322E-05  9.1242E-05  9.1088E-05  9.0880E-05  9.0713E-05  9.0684E-05  9.0832E-05  9.1193E-05  9.1799E-05
       9.2669E-05  9.3809E-05  9.5203E-05  9.6813E-05  9.8575E-05  1.0040E-04  1.0218E-04  1.0378E-04  1.0509E-04  1.0601E-04
       1.0657E-04  1.0673E-04  1.0659E-04  1.0623E-04  1.0572E-04  1.0511E-04  1.0446E-04  1.0379E-04  1.0312E-04  1.0247E-04
       1.0185E-04  1.0128E-04  1.0079E-04  1.0038E-04  1.0005E-04
   6   9.1583E-05  9.1599E-05  9.1525E-05  9.1370E-05  9.1164E-05  9.0996E-05  9.0961E-05  9.1111E-05  9.1492E-05  9.2142E-05
       9.3087E-05  9.4334E-05  9.5870E-05  9.7652E-05  9.9608E-05  1.0164E-04  1.0361E-04  1.0539E-04  1.0683E-04  1.0781E-04
       1.0826E-04  1.0829E-04  1.0800E-04  1.0751E-04  1.0687E-04  1.0615E-04  1.0539E-04  1.0461E-04  1.0385E-04  1.0312E-04
       1.0242E-04  1.0179E-04  1.0124E-04  1.0078E-04  1.0040E-04
   7   9.1858E-05  9.1892E-05  9.1830E-05  9.1682E-05  9.1485E-05  9.1323E-05  9.1282E-05  9.1432E-05  9.1828E-05  9.2519E-05
       9.3539E-05  9.4898E-05  9.6582E-05  9.8547E-05  1.0071E-04  1.0296E-04  1.0514E-04  1.0710E-04  1.0867E-04  1.0970E-04
       1.1004E-04  1.0992E-04  1.0948E-04  1.0883E-04  1.0806E-04  1.0722E-04  1.0635E-04  1.0548E-04  1.0462E-04  1.0380E-04
       1.0303E-04  1.0233E-04  1.0171E-04  1.0119E-04  1.0076E-04
   8   9.2145E-05  9.2202E-05  9.2157E-05  9.2020E-05  9.1835E-05  9.1676E-05  9.1629E-05  9.1773E-05  9.2179E-05  9.2906E-05
       9.3998E-05  9.5469E-05  9.7307E-05  9.9460E-05  1.0184E-04  1.0431E-04  1.0671E-04  1.0883E-04  1.1049E-04  1.1150E-04
       1.1178E-04  1.1154E-04  1.1096E-04  1.1017E-04  1.0928E-04  1.0832E-04  1.0734E-04  1.0637E-04  1.0542E-04  1.0451E-04
       1.0366E-04  1.0288E-04  1.0220E-04  1.0162E-04  1.0113E-04
   9   9.2438E-05  9.2524E-05  9.2500E-05  9.2379E-05  9.2203E-05  9.2043E-05  9.1984E-05  9.2115E-05  9.2520E-05  9.3276E-05
       9.4434E-05  9.6015E-05  9.8005E-05  1.0035E-04  1.0294E-04  1.0563E-04  1.0823E-04  1.1049E-04  1.1220E-04  1.1319E-04
       1.1342E-04  1.1309E-04  1.1240E-04  1.1149E-04  1.1048E-04  1.0942E-04  1.0834E-04  1.0727E-04  1.0623E-04  1.0523E-04
       1.0430E-04  1.0345E-04  1.0270E-04  1.0206E-04  1.0151E-04
  10   9.2732E-05  9.2850E-05  9.2851E-05  9.2746E-05  9.2576E-05  9.2408E-05  9.2328E-05  9.2434E-05  9.2828E-05  9.3602E-05
       9.4820E-05  9.6505E-05  9.8640E-05  1.0116E-04  1.0396E-04  1.0686E-04  1.0964E-04  1.1202E-04  1.1377E-04  1.1473E-04
       1.1493E-04  1.1454E-04  1.1376E-04  1.1276E-04  1.1165E-04  1.1050E-04  1.0933E-04  1.0817E-04  1.0704E-04  1.0596E-04
       1.0495E-04  1.0402E-04  1.0320E-04  1.0249E-04  1.0189E-04
  11   9.3020E-05  9.3173E-05  9.3198E-05  9.3107E-05  9.2939E-05  9.2756E-05  9.2644E-05  9.2711E-05  9.3078E-05  9.3859E-05
       9.5128E-05  9.6910E-05  9.9181E-05  1.0187E-04  1.0486E-04  1.0794E-04  1.1088E-04  1.1337E-04  1.1515E-04  1.1610E-04
       1.1628E-04  1.1585E-04  1.1501E-04  1.1394E-04  1.1276E-04  1.1154E-04  1.1030E-04  1.0906E-04  1.0785E-04  1.0668E-04
       1.0559E-04  1.0459E-04  1.0369E-04  1.0292E-04  1.0226E-04
  12   9.3291E-05  9.3479E-05  9.3528E-05  9.3448E-05  9.3275E-05  9.3070E-05  9.2915E-05  9.2926E-05  9.3251E-05  9.4029E-05
       9.5343E-05  9.7213E-05  9.9609E-05  1.0245E-04  1.0560E-04  1.0884E-04  1.1190E-04  1.1449E-04  1.1631E-04  1.1729E-04
       1.1746E-04  1.1701E-04  1.1614E-04  1.1503E-04  1.1381E-04  1.1253E-04  1.1124E-04  1.0993E-04  1.0864E-04  1.0739E-04
       1.0621E-04  1.0513E-04  1.0417E-04  1.0333E-04  1.0261E-04
  13   9.3534E-05  9.3755E-05  9.3824E-05  9.3748E-05  9.3565E-05  9.3331E-05  9.3125E-05  9.3064E-05  9.3331E-05  9.4100E-05
       9.5458E-05  9.7411E-05  9.9919E-05  1.0289E-04  1.0617E-04  1.0954E-04  1.1269E-04  1.1534E-04  1.1726E-04  1.1829E-04
       1.1849E-04  1.1804E-04  1.1715E-04  1.1602E-04  1.1477E-04  1.1347E-04  1.1214E-04  1.1077E-04  1.0940E-04  1.0807E-04
       1.0681E-04  1.0565E-04  1.0462E-04  1.0372E-04  1.0294E-04
  14   9.3739E-05  9.3989E-05  9.4068E-05  9.3987E-05  9.3785E-05  9.3519E-05  9.3257E-05  9.3113E-05  9.3312E-05  9.4077E-05
       9.5484E-05  9.7519E-05  1.0012E-04  1.0320E-04  1.0660E-04  1.1007E-04  1.1331E-04  1.1602E-04  1.1805E-04  1.1915E-04
       1.1939E-04  1.1895E-04  1.1806E-04  1.1691E-04  1.1565E-04  1.1434E-04  1.1298E-04  1.1157E-04  1.1012E-04  1.0871E-04
       1.0737E-04  1.0613E-04  1.0503E-04  1.0407E-04  1.0324E-04
  15   9.3895E-05  9.4165E-05  9.4244E-05  9.4143E-05  9.3909E-05  9.3605E-05  9.3294E-05  9.3064E-05  9.3198E-05  9.3981E-05
       9.5449E-05  9.7565E-05  1.0026E-04  1.0343E-04  1.0691E-04  1.1049E-04  1.1386E-04  1.1668E-04  1.1877E-04  1.1993E-04
       1.2021E-04  1.1978E-04  1.1889E-04  1.1772E-04  1.1645E-04  1.1515E-04  1.1378E-04  1.1231E-04  1.1079E-04  1.0929E-04
       1.0787E-04  1.0656E-04  1.0540E-04  1.0438E-04  1.0351E-04
  16   9.3991E-05  9.4273E-05  9.4338E-05  9.4198E-05  9.3911E-05  9.3556E-05  9.3208E-05  9.2914E-05  9.3018E-05  9.3852E-05
       9.5393E-05  9.7591E-05  1.0037E-04  1.0361E-04  1.0717E-04  1.1085E-04  1.1436E-04  1.1733E-04  1.1948E-04  1.2068E-04
       1.2099E-04  1.2058E-04  1.1968E-04  1.1849E-04  1.1719E-04  1.1590E-04  1.1451E-04  1.1298E-04  1.1138E-04  1.0980E-04
       1.0830E-04  1.0693E-04  1.0571E-04  1.0465E-04  1.0373E-04
  17   9.4020E-05  9.4305E-05  9.4340E-05  9.4140E-05  9.3776E-05  9.3345E-05  9.2940E-05  9.2674E-05  9.2848E-05  9.3733E-05
       9.5348E-05  9.7633E-05  1.0050E-04  1.0381E-04  1.0743E-04  1.1117E-04  1.1484E-04  1.1795E-04  1.2019E-04  1.2144E-04
       1.2178E-04  1.2139E-04  1.2048E-04  1.1926E-04  1.1791E-04  1.1659E-04  1.1517E-04  1.1356E-04  1.1188E-04  1.1023E-04
       1.0866E-04  1.0724E-04  1.0597E-04  1.0486E-04  1.0391E-04
  18   9.3976E-05  9.4257E-05  9.4249E-05  9.3970E-05  9.3507E-05  9.2989E-05  9.2550E-05  9.2349E-05  9.2634E-05  9.3610E-05
       9.5321E-05  9.7710E-05  1.0068E-04  1.0408E-04  1.0774E-04  1.1151E-04  1.1526E-04  1.1855E-04  1.2089E-04  1.2221E-04
       1.2260E-04  1.2222E-04  1.2130E-04  1.2005E-04  1.1866E-04  1.1723E-04  1.1571E-04  1.1403E-04  1.1228E-04  1.1056E-04
       1.0894E-04  1.0746E-04  1.0615E-04  1.0501E-04  1.0403E-04
  19   9.3853E-05  9.4126E-05  9.4066E-05  9.3694E-05  9.3120E-05  9.2512E-05  9.2054E-05  9.1934E-05  9.2351E-05  9.3459E-05
       9.5299E-05  9.7823E-05  1.0092E-04  1.0444E-04  1.0819E-04  1.1199E-04  1.1571E-04  1.1910E-04  1.2158E-04  1.2300E-04
       1.2343E-04  1.2307E-04  1.2213E-04  1.2085E-04  1.1937E-04  1.1782E-04  1.1616E-04  1.1439E-04  1.1257E-04  1.1080E-04
       1.0913E-04  1.0761E-04  1.0627E-04  1.0510E-04  1.0411E-04
  20   9.3646E-05  9.3910E-05  9.3797E-05  9.3324E-05  9.2627E-05  9.1927E-05  9.1460E-05  9.1427E-05  9.1990E-05  9.3258E-05
       9.5261E-05  9.7951E-05  1.0122E-04  1.0489E-04  1.0876E-04  1.1260E-04  1.1630E-04  1.1971E-04  1.2229E-04  1.2378E-04
       1.2424E-04  1.2389E-04  1.2293E-04  1.2158E-04  1.2002E-04  1.1832E-04  1.1653E-04  1.1465E-04  1.1277E-04  1.1094E-04
       1.0923E-04  1.0769E-04  1.0632E-04  1.0514E-04  1.0413E-04
  21   9.3345E-05  9.3604E-05  9.3442E-05  9.2868E-05  9.2040E-05  9.1244E-05  9.0774E-05  9.0834E-05  9.1552E-05  9.2997E-05
       9.5182E-05  9.8060E-05  1.0152E-04  1.0538E-04  1.0940E-04  1.1332E-04  1.1700E-04  1.2041E-04  1.2302E-04  1.2452E-04
       1.2499E-04  1.2462E-04  1.2363E-04  1.2222E-04  1.2055E-04  1.1872E-04  1.1679E-04  1.1481E-04  1.1286E-04  1.1099E-04
       1.0925E-04  1.0768E-04  1.0630E-04  1.0511E-04  1.0410E-04
  22   9.2937E-05  9.3197E-05  9.3001E-05  9.2335E-05  9.1369E-05  9.0473E-05  9.0008E-05  9.0170E-05  9.1044E-05  9.2669E-05
       9.5042E-05  9.8111E-05  1.0177E-04  1.0583E-04  1.1005E-04  1.1411E-04  1.1779E-04  1.2118E-04  1.2372E-04  1.2518E-04
       1.2561E-04  1.2521E-04  1.2418E-04  1.2270E-04  1.2092E-04  1.1898E-04  1.1693E-04  1.1487E-04  1.1285E-04  1.1094E-04
       1.0918E-04  1.0760E-04  1.0622E-04  1.0503E-04  1.0402E-04
  23   9.2404E-05  9.2669E-05  9.2458E-05  9.1726E-05  9.0625E-05  8.9629E-05  8.9185E-05  8.9457E-05  9.0483E-05  9.2275E-05
       9.4819E-05  9.8063E-05  1.0190E-04  1.0615E-04  1.1057E-04  1.1485E-04  1.1868E-04  1.2191E-04  1.2429E-04  1.2565E-04
       1.2603E-04  1.2559E-04  1.2452E-04  1.2298E-04  1.2113E-04  1.1908E-04  1.1694E-04  1.1480E-04  1.1274E-04  1.1080E-04
       1.0903E-04  1.0745E-04  1.0607E-04  1.0489E-04  1.0389E-04
  24   9.1729E-05  9.1990E-05  9.1784E-05  9.1034E-05  8.9818E-05  8.8739E-05  8.8345E-05  8.8727E-05  8.9884E-05  9.1813E-05
       9.4496E-05  9.7880E-05  1.0186E-04  1.0626E-04  1.1084E-04  1.1528E-04  1.1926E-04  1.2237E-04  1.2459E-04  1.2586E-04
       1.2619E-04  1.2572E-04  1.2461E-04  1.2303E-04  1.2113E-04  1.1901E-04  1.1680E-04  1.1461E-04  1.1252E-04  1.1058E-04
       1.0881E-04  1.0723E-04  1.0587E-04  1.0470E-04  1.0372E-04
  25   9.0896E-05  9.1129E-05  9.0925E-05  9.0215E-05  8.8966E-05  8.7851E-05  8.7539E-05  8.8009E-05  8.9260E-05  9.1283E-05
       9.4060E-05  9.7534E-05  1.0160E-04  1.0609E-04  1.1075E-04  1.1526E-04  1.1925E-04  1.2236E-04  1.2453E-04  1.2573E-04
       1.2603E-04  1.2555E-04  1.2443E-04  1.2284E-04  1.2091E-04  1.1876E-04  1.1651E-04  1.1430E-04  1.1221E-04  1.1027E-04
       1.0851E-04  1.0696E-04  1.0561E-04  1.0447E-04  1.0351E-04
  26   8.9911E-05  9.0080E-05  8.9844E-05  8.9139E-05  8.8040E-05  8.7069E-05  8.6795E-05  8.7309E-05  8.8607E-05  9.0678E-05
       9.3498E-05  9.7011E-05  1.0111E-04  1.0562E-04  1.1029E-04  1.1480E-04  1.1877E-04  1.2189E-04  1.2406E-04  1.2526E-04
       1.2556E-04  1.2508E-04  1.2397E-04  1.2239E-04  1.2046E-04  1.1831E-04  1.1606E-04  1.1386E-04  1.1179E-04  1.0988E-04
       1.0815E-04  1.0663E-04  1.0531E-04  1.0419E-04  1.0326E-04
  27   8.8800E-05  8.8881E-05  8.8601E-05  8.7936E-05  8.7018E-05  8.6246E-05  8.6052E-05  8.6596E-05  8.7908E-05  8.9985E-05
       9.2803E-05  9.6305E-05  1.0039E-04  1.0487E-04  1.0950E-04  1.1396E-04  1.1790E-04  1.2103E-04  1.2322E-04  1.2444E-04
       1.2476E-04  1.2431E-04  1.2324E-04  1.2169E-04  1.1980E-04  1.1767E-04  1.1546E-04  1.1332E-04  1.1129E-04  1.0942E-04
       1.0774E-04  1.0625E-04  1.0496E-04  1.0388E-04  1.0298E-04
  28   8.7605E-05  8.7589E-05  8.7274E-05  8.6670E-05  8.5924E-05  8.5344E-05  8.5255E-05  8.5833E-05  8.7142E-05  8.9194E-05
       9.1971E-05  9.5420E-05  9.9436E-05  1.0385E-04  1.0841E-04  1.1281E-04  1.1671E-04  1.1984E-04  1.2205E-04  1.2331E-04
       1.2367E-04  1.2327E-04  1.2225E-04  1.2076E-04  1.1892E-04  1.1686E-04  1.1475E-04  1.1268E-04  1.1072E-04  1.0891E-04
       1.0727E-04  1.0583E-04  1.0458E-04  1.0354E-04  1.0267E-04
  29   8.6370E-05  8.6262E-05  8.5922E-05  8.5383E-05  8.4787E-05  8.4372E-05  8.4388E-05  8.5002E-05  8.6297E-05  8.8302E-05
       9.1008E-05  9.4370E-05  9.8288E-05  1.0260E-04  1.0707E-04  1.1139E-04  1.1525E-04  1.1838E-04  1.2062E-04  1.2192E-04
       1.2234E-04  1.2201E-04  1.2106E-04  1.1964E-04  1.1790E-04  1.1595E-04  1.1393E-04  1.1196E-04  1.1008E-04  1.0833E-04
       1.0676E-04  1.0537E-04  1.0417E-04  1.0317E-04  1.0234E-04
  30   8.5136E-05  8.4946E-05  8.4587E-05  8.4108E-05  8.3633E-05  8.3351E-05  8.3458E-05  8.4103E-05  8.5376E-05  8.7316E-05
       8.9929E-05  9.3176E-05  9.6969E-05  1.0116E-04  1.0552E-04  1.0976E-04  1.1358E-04  1.1671E-04  1.1897E-04  1.2032E-04
       1.2081E-04  1.2055E-04  1.1969E-04  1.1838E-04  1.1675E-04  1.1493E-04  1.1304E-04  1.1117E-04  1.0938E-04  1.0772E-04
       1.0621E-04  1.0488E-04  1.0373E-04  1.0277E-04  1.0199E-04
  31   8.3936E-05  8.3675E-05  8.3302E-05  8.2871E-05  8.2492E-05  8.2313E-05  8.2490E-05  8.3154E-05  8.4393E-05  8.6256E-05
       8.8757E-05  9.1868E-05  9.5515E-05  9.9563E-05  1.0381E-04  1.0797E-04  1.1175E-04  1.1487E-04  1.1715E-04  1.1855E-04
       1.1911E-04  1.1894E-04  1.1819E-04  1.1700E-04  1.1551E-04  1.1383E-04  1.1207E-04  1.1032E-04  1.0864E-04  1.0706E-04
       1.0563E-04  1.0436E-04  1.0327E-04  1.0236E-04  1.0162E-04
  32   8.2796E-05  8.2475E-05  8.2090E-05  8.1697E-05  8.1390E-05  8.1287E-05  8.1514E-05  8.2183E-05  8.3377E-05  8.5151E-05
       8.7524E-05  9.0482E-05  9.3965E-05  9.7857E-05  1.0197E-04  1.0605E-04  1.0979E-04  1.1290E-04  1.1521E-04  1.1666E-04
       1.1729E-04  1.1722E-04  1.1659E-04  1.1553E-04  1.1418E-04  1.1265E-04  1.1104E-04  1.0942E-04  1.0785E-04  1.0637E-04
       1.0502E-04  1.0382E-04  1.0279E-04  1.0193E-04  1.0123E-04
  33   8.1737E-05  8.1367E-05  8.0971E-05  8.0606E-05  8.0353E-05  8.0306E-05  8.0563E-05  8.1221E-05  8.2361E-05  8.4035E-05
       8.6271E-05  8.9061E-05  9.2364E-05  9.6083E-05  1.0006E-04  1.0405E-04  1.0775E-04  1.1086E-04  1.1319E-04  1.1467E-04
       1.1538E-04  1.1541E-04  1.1491E-04  1.1400E-04  1.1280E-04  1.1143E-04  1.0997E-04  1.0848E-04  1.0703E-04  1.0566E-04
       1.0439E-04  1.0326E-04  1.0229E-04  1.0149E-04  1.0084E-04
  34   8.0774E-05  8.0366E-05  7.9963E-05  7.9618E-05  7.9406E-05  7.9396E-05  7.9668E-05  8.0305E-05  8.1382E-05  8.2951E-05
       8.5040E-05  8.7653E-05  9.0761E-05  9.4290E-05  9.8107E-05  1.0200E-04  1.0566E-04  1.0877E-04  1.1111E-04  1.1264E-04
       1.1341E-04  1.1355E-04  1.1318E-04  1.1242E-04  1.1138E-04  1.1017E-04  1.0886E-04  1.0752E-04  1.0619E-04  1.0493E-04
       1.0375E-04  1.0269E-04  1.0179E-04  1.0104E-04  1.0044E-04
  35   7.9918E-05  7.9485E-05  7.9078E-05  7.8750E-05  7.8567E-05  7.8584E-05  7.8858E-05  7.9468E-05  8.0478E-05  8.1938E-05
       8.3878E-05  8.6308E-05  8.9208E-05  9.2529E-05  9.6167E-05  9.9945E-05  1.0357E-04  1.0667E-04  1.0901E-04  1.1058E-04
       1.1142E-04  1.1166E-04  1.1142E-04  1.1081E-04  1.0994E-04  1.0889E-04  1.0773E-04  1.0653E-04  1.0534E-04  1.0418E-04
       1.0310E-04  1.0212E-04  1.0128E-04  1.0059E-04  1.0004E-04
  36   7.9175E-05  7.8730E-05  7.8329E-05  7.8019E-05  7.7855E-05  7.7885E-05  7.8159E-05  7.8740E-05  7.9684E-05  8.1039E-05
       8.2832E-05  8.5077E-05  8.7766E-05  9.0861E-05  9.4292E-05  9.7925E-05  1.0150E-04  1.0458E-04  1.0693E-04  1.0852E-04
       1.0943E-04  1.0978E-04  1.0967E-04  1.0921E-04  1.0849E-04  1.0760E-04  1.0660E-04  1.0554E-04  1.0448E-04  1.0344E-04
       1.0244E-04  1.0154E-04  1.0077E-04  1.0014E-04  9.9637E-05
  37   7.8548E-05  7.8104E-05  7.7717E-05  7.7428E-05  7.7283E-05  7.7324E-05  7.7595E-05  7.8147E-05  7.9032E-05  8.0287E-05
       8.1943E-05  8.4012E-05  8.6490E-05  8.9353E-05  9.2549E-05  9.5991E-05  9.9492E-05  1.0254E-04  1.0487E-04  1.0648E-04
       1.0746E-04  1.0791E-04  1.0793E-04  1.0762E-04  1.0706E-04  1.0632E-04  1.0547E-04  1.0456E-04  1.0362E-04  1.0269E-04
       1.0179E-04  1.0098E-04  1.0028E-04  9.9704E-05  9.9245E-05
  38   7.8036E-05  7.7607E-05  7.7243E-05  7.6980E-05  7.6856E-05  7.6910E-05  7.7180E-05  7.7711E-05  7.8543E-05  7.9712E-05
       8.1244E-05  8.3152E-05  8.5434E-05  8.8072E-05  9.1025E-05  9.4223E-05  9.7570E-05  1.0058E-04  1.0287E-04  1.0449E-04
       1.0554E-04  1.0609E-04  1.0623E-04  1.0607E-04  1.0566E-04  1.0507E-04  1.0437E-04  1.0359E-04  1.0277E-04  1.0195E-04
       1.0116E-04  1.0043E-04  9.9799E-05  9.9280E-05  9.8862E-05
  39   7.7635E-05  7.7234E-05  7.6902E-05  7.6671E-05  7.6575E-05  7.6648E-05  7.6923E-05  7.7440E-05  7.8232E-05  7.9330E-05
       8.0756E-05  8.2523E-05  8.4631E-05  8.7066E-05  8.9796E-05  9.2767E-05  9.5850E-05  9.8696E-05  1.0095E-04  1.0258E-04
       1.0368E-04  1.0433E-04  1.0460E-04  1.0456E-04  1.0430E-04  1.0385E-04  1.0329E-04  1.0264E-04  1.0194E-04  1.0124E-04
       1.0054E-04  9.9899E-05  9.9338E-05  9.8870E-05  9.8490E-05
  40   7.7338E-05  7.6976E-05  7.6685E-05  7.6493E-05  7.6431E-05  7.6529E-05  7.6818E-05  7.7330E-05  7.8095E-05  7.9138E-05
       8.0479E-05  8.2127E-05  8.4084E-05  8.6336E-05  8.8857E-05  9.1587E-05  9.4394E-05  9.7003E-05  9.9152E-05  1.0078E-04
       1.0193E-04  1.0265E-04  1.0303E-04  1.0312E-04  1.0299E-04  1.0268E-04  1.0224E-04  1.0172E-04  1.0114E-04  1.0054E-04
       9.9945E-05  9.9388E-05  9.8894E-05  9.8474E-05  9.8129E-05



             ZONE ARRAY: HK_Par1_Z1
 READING ON UNIT   13 WITH FORMAT: (FREE)              



             ZONE ARRAY: HK_Par1_Z2
 READING ON UNIT   13 WITH FORMAT: (FREE)              



             ZONE ARRAY: HK_Par1_Z3
 READING ON UNIT   13 WITH FORMAT: (FREE)              

 LPF -- LAYER-PROPERTY FLOW PACKAGE, VERSION 7, 5/2/2005
         INPUT READ FROM UNIT   11
 # LPF: Layer Property Flow package file
 CELL-BY-CELL FLOWS WILL BE SAVED ON UNIT   50
 HEAD AT CELLS THAT CONVERT TO DRY=   999.00    
     1 Named Parameters     

   LAYER FLAGS:
 LAYER       LAYTYP        LAYAVG         CHANI        LAYVKA        LAYWET
 ---------------------------------------------------------------------------
    1             0             0     1.000E+00             1             0
    2             0             0     1.000E+00             1             0
    3             0             0     1.000E+00             1             0

   INTERPRETATION OF LAYER FLAGS:
                        INTERBLOCK     HORIZONTAL    DATA IN
         LAYER TYPE   TRANSMISSIVITY   ANISOTROPY   ARRAY VKA   WETTABILITY
 LAYER      (LAYTYP)      (LAYAVG)       (CHANI)      (LAYVKA)      (LAYWET)
 ---------------------------------------------------------------------------
    1      CONFINED      HARMONIC     1.000E+00    ANISOTROPY  NON-WETTABLE
    2      CONFINED      HARMONIC     1.000E+00    ANISOTROPY  NON-WETTABLE
    3      CONFINED      HARMONIC     1.000E+00    ANISOTROPY  NON-WETTABLE

 WETTING CAPABILITY IS NOT ACTIVE IN ANY LAYER

 PARAMETERS DEFINED IN THE LPF PACKAGE

 PARAMETER NAME:HK_Par1      TYPE:HK     CLUSTERS:   3
 Parameter value from package file is:    1.0000    
                LAYER:   1    MULTIPLIER ARRAY: HK_Par1_M1    ZONE ARRAY: HK_Par1_Z1
                ZONE VALUES:    1
                LAYER:   2    MULTIPLIER ARRAY: HK_Par1_M2    ZONE ARRAY: HK_Par1_Z2
                ZONE VALUES:    1
                LAYER:   3    MULTIPLIER ARRAY: HK_Par1_M3    ZONE ARRAY: HK_Par1_Z3
                ZONE VALUES:    1

    HYD. COND. ALONG ROWS FOR LAYER   1 WILL BE DEFINED BY PARAMETERS
 (PRINT FLAG=  -1)

    HYD. COND. ALONG ROWS is defined by the following parameters:
 HK_Par1   


              HYD. COND. ALONG ROWS FOR LAYER   1

  HORIZ. TO VERTICAL ANI. =   1.00000     FOR LAYER   1

    HYD. COND. ALONG ROWS FOR LAYER   2 WILL BE DEFINED BY PARAMETERS
 (PRINT FLAG=  -1)

    HYD. COND. ALONG ROWS is defined by the following parameters:
 HK_Par1   


              HYD. COND. ALONG ROWS FOR LAYER   2

  HORIZ. TO VERTICAL ANI. =   1.00000     FOR LAYER   2

    HYD. COND. ALONG ROWS FOR LAYER   3 WILL BE DEFINED BY PARAMETERS
 (PRINT FLAG=  -1)

    HYD. COND. ALONG ROWS is defined by the following parameters:
 HK_Par1   


              HYD. COND. ALONG ROWS FOR LAYER   3

  HORIZ. TO VERTICAL ANI. =   1.00000     FOR LAYER   3

 WEL -- WELL PACKAGE, VERSION 7, 5/2/2005 INPUT READ FROM UNIT   12
 # WEL: Well package file
 No named parameters
 MAXIMUM OF      3 ACTIVE WELLS AT ONE TIME
 CELL-BY-CELL FLOWS WILL BE SAVED ON UNIT   54


     0 Well parameters

 CHD -- TIME-VARIANT SPECIFIED-HEAD OPTION, VERSION 7, 5/2/2005
 INPUT READ FROM UNIT   40
 # CHD: Time-Variant Specified-Head package file created
 No named parameters
 MAXIMUM OF    240 TIME-VARIANT SPECIFIED-HEAD CELLS AT ONE TIME
 AUXILIARY CHD VARIABLE: IFACE           


     0 TIME-VARIANT SPECIFIED-HEAD PARAMETERS

 PCG -- CONJUGATE-GRADIENT SOLUTION PACKAGE, VERSION 7, 5/2/2005
 MAXIMUM OF   1000 CALLS OF SOLUTION ROUTINE
 MAXIMUM OF     40 INTERNAL ITERATIONS PER CALL TO SOLUTION ROUTINE
 MATRIX PRECONDITIONING TYPE :    1



                                    SOLUTION BY THE CONJUGATE-GRADIENT METHOD
                                   -------------------------------------------
                    MAXIMUM NUMBER OF CALLS TO PCG ROUTINE =     1000
                        MAXIMUM ITERATIONS PER CALL TO PCG =       40
                               MATRIX PRECONDITIONING TYPE =        1
        RELAXATION FACTOR (ONLY USED WITH PRECOND. TYPE 1) =    0.10000E+01
 PARAMETER OF POLYNOMIAL PRECOND. = 2 (2) OR IS CALCULATED :        2
                         HEAD CHANGE CRITERION FOR CLOSURE =    0.10000E-05
                     RESIDUAL CHANGE CRITERION FOR CLOSURE =    0.10000E-05
            PCG HEAD AND RESIDUAL CHANGE PRINTOUT INTERVAL =        5
     PRINTING FROM SOLVER IS LIMITED(1) OR SUPPRESSED (>1) =        0
                                         DAMPING PARAMETER =    0.10000E+01

 OBS2BAS7 -- HEAD OBSERVATIONS, VERSION 2.0, 2/28/2006
 INPUT READ FROM UNIT  18
 # HOB: Head Observation package file

 NUMBER OF HEADS....................................:   36
   NUMBER OF MULTILAYER HEADS.......................:    0
   MAXIMUM NUMBER OF LAYERS FOR MULTILAYER HEADS....:    2
 HEAD OBSERVATIONS WILL BE SAVED ON UNIT............:   14
 SIMULATED EQUIVALENT HEAD AT DRY CELLS WILL BE:    999.000    

 OBSERVED HEAD DATA -- TIME OFFSETS ARE MULTIPLIED BY:   1.0000    

                    REFER.
       OBSERVATION  STRESS    TIME
  OBS#    NAME      PERIOD   OFFSET    OBSERVATION
     1 obs1_01          1    1.000       0.000    
     2 obs1_02          1    1.000       0.000    
     3 obs1_03          1    1.000       0.000    
     4 obs1_04          1    1.000       0.000    
     5 obs1_05          1    1.000       0.000    
     6 obs1_06          1    1.000       0.000    
     7 obs1_07          1    1.000       0.000    
     8 obs1_08          1    1.000       0.000    
     9 obs1_09          1    1.000       0.000    
    10 obs1_10          1    1.000       0.000    
    11 obs1_11          1    1.000       0.000    
    12 obs1_12          1    1.000       0.000    
    13 obs2_01          1    1.000       0.000    
    14 obs2_02          1    1.000       0.000    
    15 obs2_03          1    1.000       0.000    
    16 obs2_04          1    1.000       0.000    
    17 obs2_05          1    1.000       0.000    
    18 obs2_06          1    1.000       0.000    
    19 obs2_07          1    1.000       0.000    
    20 obs2_08          1    1.000       0.000    
    21 obs2_09          1    1.000       0.000    
    22 obs2_10          1    1.000       0.000    
    23 obs2_11          1    1.000       0.000    
    24 obs2_12          1    1.000       0.000    
    25 obs3_01          1    1.000       0.000    
    26 obs3_02          1    1.000       0.000    
    27 obs3_03          1    1.000       0.000    
    28 obs3_04          1    1.000       0.000    
    29 obs3_05          1    1.000       0.000    
    30 obs3_06          1    1.000       0.000    
    31 obs3_07          1    1.000       0.000    
    32 obs3_08          1    1.000       0.000    
    33 obs3_09          1    1.000       0.000    
    34 obs3_10          1    1.000       0.000    
    35 obs3_11          1    1.000       0.000    
    36 obs3_12          1    1.000       0.000    

                                                     HEAD CHANGE
                                                      REFERENCE
        OBSERVATION                   ROW     COL    OBSERVATION
  OBS#     NAME       LAY  ROW  COL  OFFSET  OFFSET   (IF > 0)
     1  obs1_01         1    5    5   0.000   0.000        0
     2  obs1_02         1    5   31   0.000   0.000        0
     3  obs1_03         1   16    8   0.000   0.000        0
     4  obs1_04         1   17   26   0.000   0.000        0
     5  obs1_05         1   35    5   0.000   0.000        0
     6  obs1_06         1   37   31   0.000   0.000        0
     7  obs1_07         1   23   17   0.000   0.000        0
     8  obs1_08         1    6   20   0.000   0.000        0
     9  obs1_09         1   25    5   0.000   0.000        0
    10  obs1_10         1   27   26   0.000   0.000        0
    11  obs1_11         1   38   17   0.000   0.000        0
    12  obs1_12         1   13   18   0.000   0.000        0
    13  obs2_01         2    5    5   0.000   0.000        0
    14  obs2_02         2    5   31   0.000   0.000        0
    15  obs2_03         2   16    8   0.000   0.000        0
    16  obs2_04         2   17   26   0.000   0.000        0
    17  obs2_05         2   35    5   0.000   0.000        0
    18  obs2_06         2   37   31   0.000   0.000        0
    19  obs2_07         2   23   17   0.000   0.000        0
    20  obs2_08         2    6   20   0.000   0.000        0
    21  obs2_09         2   25    5   0.000   0.000        0
    22  obs2_10         2   27   26   0.000   0.000        0
    23  obs2_11         2   38   17   0.000   0.000        0
    24  obs2_12         2   13   18   0.000   0.000        0
    25  obs3_01         3    5    5   0.000   0.000        0
    26  obs3_02         3    5   31   0.000   0.000        0
    27  obs3_03         3   16    8   0.000   0.000        0
    28  obs3_04         3   17   26   0.000   0.000        0
    29  obs3_05         3   35    5   0.000   0.000        0
    30  obs3_06         3   37   31   0.000   0.000        0
    31  obs3_07         3   23   17   0.000   0.000        0
    32  obs3_08         3    6   20   0.000   0.000        0
    33  obs3_09         3   25    5   0.000   0.000        0
    34  obs3_10         3   27   26   0.000   0.000        0
    35  obs3_11         3   38   17   0.000   0.000        0
    36  obs3_12         3   13   18   0.000   0.000        0

 ADJ -- ADJOINT STATE SENSITIVITY PACKAGE, VERSION -- PRE-RELEASE
        INPUT READ FROM UNIT   35
 # Modflow 2005 ADJ File Input Adjoint MD
 USING OBSERVATION BASED ADJOINT STATE MODE
SENSITIVITY OUTPUT FILE CONTROL INFORMATION -   44  12   0   0
 Adjoint state solver information  read from unit 75
 PCG -- CONJUGATE-GRADIENT SOLUTION PACKAGE, VERSION 7, 5/2/2005
 MAXIMUM OF   1000 CALLS OF SOLUTION ROUTINE
 MAXIMUM OF     40 INTERNAL ITERATIONS PER CALL TO SOLUTION ROUTINE
 MATRIX PRECONDITIONING TYPE :    1



                                    SOLUTION BY THE CONJUGATE-GRADIENT METHOD
                                   -------------------------------------------
                    MAXIMUM NUMBER OF CALLS TO PCG ROUTINE =     1000
                        MAXIMUM ITERATIONS PER CALL TO PCG =       40
                               MATRIX PRECONDITIONING TYPE =        1
        RELAXATION FACTOR (ONLY USED WITH PRECOND. TYPE 1) =    0.10000E+01
 PARAMETER OF POLYNOMIAL PRECOND. = 2 (2) OR IS CALCULATED :        2
                         HEAD CHANGE CRITERION FOR CLOSURE =    0.10000E-04
                     RESIDUAL CHANGE CRITERION FOR CLOSURE =    0.10000E-04
            PCG HEAD AND RESIDUAL CHANGE PRINTOUT INTERVAL =        5
     PRINTING FROM SOLVER IS LIMITED(1) OR SUPPRESSED (>1) =        0
                                         DAMPING PARAMETER =    0.10000E+01

 NUMBER OF PARAMETERS READ FROM ADJ FILE:    1
 NUMBER OF DISTRIBUTED PARAMETERS 4200
DISTRIBUTED PARAMETER SENSITIVITIES WRITTEN TO UNIT  48 USING OUTPUT FORMAT   1
RELATIVE SENSITIVITY CUTOFF =   0.000    
DISTRIBUTED PARAMETERS ARE PARAMETERS:
   1   1   1   1   1   1   1   1   1   1
DISTRIBUTED PARAMETERS ARE PARAMETERS:
   1   1   1   1   1   1   1   1   1   1
DISTRIBUTED PARAMETERS ARE PARAMETERS:
   1   1   1   1   1   1   1   1   1   1
DISTRIBUTED PARAMETERS ARE PARAMETERS:
   1   1   1   1   1   1   1   1   1   1
DISTRIBUTED PARAMETERS ARE PARAMETERS:
   1   1   1   1   1   1   1   1   1   1
DISTRIBUTED PARAMETERS ARE PARAMETERS:
   1   1   1   1   1   1   1   1   1   1
DISTRIBUTED PARAMETERS ARE PARAMETERS:
   1   1   1   1   1   1   1   1   1   1
DISTRIBUTED PARAMETERS ARE PARAMETERS:
   1   1   1   1   1   1   1   1   1   1
DISTRIBUTED PARAMETERS ARE PARAMETERS:
   1   1   1   1   1   1   1   1   1   1
DISTRIBUTED PARAMETERS ARE PARAMETERS:
   1   1   1   1   1   1   1   1   1   1
DISTRIBUTED PARAMETERS ARE PARAMETERS:
   1   1   1   1   1   1   1   1   1   1
DISTRIBUTED PARAMETERS ARE PARAMETERS:
   1   1   1   1   1   1   1   1   1   1
DISTRIBUTED PARAMETERS ARE PARAMETERS:
   1   1   1   1   1   1   1   1   1   1
DISTRIBUTED PARAMETERS ARE PARAMETERS:
   1   1   1   1   1   1   1   1   1   1
DISTRIBUTED PARAMETERS ARE PARAMETERS:
   1   1   1   1   1   1   1   1   1   1
DISTRIBUTED PARAMETERS ARE PARAMETERS:
   1   1   1   1   1   1   1   1   1   1
DISTRIBUTED PARAMETERS ARE PARAMETERS:
   1   1   1   1   1   1   1   1   1   1
DISTRIBUTED PARAMETERS ARE PARAMETERS:
   1   1   1   1   1   1   1   1   1   1
DISTRIBUTED PARAMETERS ARE PARAMETERS:
   1   1   1   1   1   1   1   1   1   1
DISTRIBUTED PARAMETERS ARE PARAMETERS:
   1   1   1   1   1   1   1   1   1   1
DISTRIBUTED PARAMETERS ARE PARAMETERS:
   1   1   1   1   1   1   1   1   1   1
DISTRIBUTED PARAMETERS ARE PARAMETERS:
   1   1   1   1   1   1   1   1   1   1
DISTRIBUTED PARAMETERS ARE PARAMETERS:
   1   1   1   1   1   1   1   1   1   1
DISTRIBUTED PARAMETERS ARE PARAMETERS:
   1   1   1   1   1   1   1   1   1   1
DISTRIBUTED PARAMETERS ARE PARAMETERS:
   1   1   1   1   1   1   1   1   1   1
DISTRIBUTED PARAMETERS ARE PARAMETERS:
   1   1   1   1   1   1   1   1   1   1
DISTRIBUTED PARAMETERS ARE PARAMETERS:
   1   1   1   1   1   1   1   1   1   1
DISTRIBUTED PARAMETERS ARE PARAMETERS:
   1   1   1   1   1   1   1   1   1   1
DISTRIBUTED PARAMETERS ARE PARAMETERS:
   1   1   1   1   1   1   1   1   1   1
DISTRIBUTED PARAMETERS ARE PARAMETERS:
   1   1   1   1   1   1   1   1   1   1
DISTRIBUTED PARAMETERS ARE PARAMETERS:
   1   1   1   1   1   1   1   1   1   1
DISTRIBUTED PARAMETERS ARE PARAMETERS:
   1   1   1   1   1   1   1   1   1   1
DISTRIBUTED PARAMETERS ARE PARAMETERS:
   1   1   1   1   1   1   1   1   1   1
DISTRIBUTED PARAMETERS ARE PARAMETERS:
   1   1   1   1   1   1   1   1   1   1
DISTRIBUTED PARAMETERS ARE PARAMETERS:
   1   1   1   1   1   1   1   1   1   1
DISTRIBUTED PARAMETERS ARE PARAMETERS:
   1   1   1   1   1   1   1   1   1   1
DISTRIBUTED PARAMETERS ARE PARAMETERS:
   1   1   1   1   1   1   1   1   1   1
DISTRIBUTED PARAMETERS ARE PARAMETERS:
   1   1   1   1   1   1   1   1   1   1
DISTRIBUTED PARAMETERS ARE PARAMETERS:
   1   1   1   1   1   1   1   1   1   1
DISTRIBUTED PARAMETERS ARE PARAMETERS:
   1   1   1   1   1   1   1   1   1   1
DISTRIBUTED PARAMETERS ARE PARAMETERS:
   1   1   1   1   1   1   1   1   1   1
DISTRIBUTED PARAMETERS ARE PARAMETERS:
   1   1   1   1   1   1   1   1   1   1
DISTRIBUTED PARAMETERS ARE PARAMETERS:
   1   1   1   1   1   1   1   1   1   1
DISTRIBUTED PARAMETERS ARE PARAMETERS:
   1   1   1   1   1   1   1   1   1   1
DISTRIBUTED PARAMETERS ARE PARAMETERS:
   1   1   1   1   1   1   1   1   1   1
DISTRIBUTED PARAMETERS ARE PARAMETERS:
   1   1   1   1   1   1   1   1   1   1
DISTRIBUTED PARAMETERS ARE PARAMETERS:
   1   1   1   1   1   1   1   1   1   1
DISTRIBUTED PARAMETERS ARE PARAMETERS:
   1   1   1   1   1   1   1   1   1   1
DISTRIBUTED PARAMETERS ARE PARAMETERS:
   1   1   1   1   1   1   1   1   1   1
DISTRIBUTED PARAMETERS ARE PARAMETERS:
   1   1   1   1   1   1   1   1   1   1
DISTRIBUTED PARAMETERS ARE PARAMETERS:
   1   1   1   1   1   1   1   1   1   1
DISTRIBUTED PARAMETERS ARE PARAMETERS:
   1   1   1   1   1   1   1   1   1   1
DISTRIBUTED PARAMETERS ARE PARAMETERS:
   1   1   1   1   1   1   1   1   1   1
DISTRIBUTED PARAMETERS ARE PARAMETERS:
   1   1   1   1   1   1   1   1   1   1
DISTRIBUTED PARAMETERS ARE PARAMETERS:
   1   1   1   1   1   1   1   1   1   1
DISTRIBUTED PARAMETERS ARE PARAMETERS:
   1   1   1   1   1   1   1   1   1   1
DISTRIBUTED PARAMETERS ARE PARAMETERS:
   1   1   1   1   1   1   1   1   1   1
DISTRIBUTED PARAMETERS ARE PARAMETERS:
   1   1   1   1   1   1   1   1   1   1
DISTRIBUTED PARAMETERS ARE PARAMETERS:
   1   1   1   1   1   1   1   1   1   1
DISTRIBUTED PARAMETERS ARE PARAMETERS:
   1   1   1   1   1   1   1   1   1   1
DISTRIBUTED PARAMETERS ARE PARAMETERS:
   1   1   1   1   1   1   1   1   1   1
DISTRIBUTED PARAMETERS ARE PARAMETERS:
   1   1   1   1   1   1   1   1   1   1
DISTRIBUTED PARAMETERS ARE PARAMETERS:
   1   1   1   1   1   1   1   1   1   1
DISTRIBUTED PARAMETERS ARE PARAMETERS:
   1   1   1   1   1   1   1   1   1   1
DISTRIBUTED PARAMETERS ARE PARAMETERS:
   1   1   1   1   1   1   1   1   1   1
DISTRIBUTED PARAMETERS ARE PARAMETERS:
   1   1   1   1   1   1   1   1   1   1
DISTRIBUTED PARAMETERS ARE PARAMETERS:
   1   1   1   1   1   1   1   1   1   1
DISTRIBUTED PARAMETERS ARE PARAMETERS:
   1   1   1   1   1   1   1   1   1   1
DISTRIBUTED PARAMETERS ARE PARAMETERS:
   1   1   1   1   1   1   1   1   1   1
DISTRIBUTED PARAMETERS ARE PARAMETERS:
   1   1   1   1   1   1   1   1   1   1
DISTRIBUTED PARAMETERS ARE PARAMETERS:
   1   1   1   1   1   1   1   1   1   1
DISTRIBUTED PARAMETERS ARE PARAMETERS:
   1   1   1   1   1   1   1   1   1   1
DISTRIBUTED PARAMETERS ARE PARAMETERS:
   1   1   1   1   1   1   1   1   1   1
DISTRIBUTED PARAMETERS ARE PARAMETERS:
   1   1   1   1   1   1   1   1   1   1
DISTRIBUTED PARAMETERS ARE PARAMETERS:
   1   1   1   1   1   1   1   1   1   1
DISTRIBUTED PARAMETERS ARE PARAMETERS:
   1   1   1   1   1   1   1   1   1   1
DISTRIBUTED PARAMETERS ARE PARAMETERS:
   1   1   1   1   1   1   1   1   1   1
DISTRIBUTED PARAMETERS ARE PARAMETERS:
   1   1   1   1   1   1   1   1   1   1
DISTRIBUTED PARAMETERS ARE PARAMETERS:
   1   1   1   1   1   1   1   1   1   1
DISTRIBUTED PARAMETERS ARE PARAMETERS:
   1   1   1   1   1   1   1   1   1   1
DISTRIBUTED PARAMETERS ARE PARAMETERS:
   1   1   1   1   1   1   1   1   1   1
DISTRIBUTED PARAMETERS ARE PARAMETERS:
   1   1   1   1   1   1   1   1   1   1
DISTRIBUTED PARAMETERS ARE PARAMETERS:
   1   1   1   1   1   1   1   1   1   1
DISTRIBUTED PARAMETERS ARE PARAMETERS:
   1   1   1   1   1   1   1   1   1   1
DISTRIBUTED PARAMETERS ARE PARAMETERS:
   1   1   1   1   1   1   1   1   1   1
DISTRIBUTED PARAMETERS ARE PARAMETERS:
   1   1   1   1   1   1   1   1   1   1
DISTRIBUTED PARAMETERS ARE PARAMETERS:
   1   1   1   1   1   1   1   1   1   1
DISTRIBUTED PARAMETERS ARE PARAMETERS:
   1   1   1   1   1   1   1   1   1   1
DISTRIBUTED PARAMETERS ARE PARAMETERS:
   1   1   1   1   1   1   1   1   1   1
DISTRIBUTED PARAMETERS ARE PARAMETERS:
   1   1   1   1   1   1   1   1   1   1
DISTRIBUTED PARAMETERS ARE PARAMETERS:
   1   1   1   1   1   1   1   1   1   1
DISTRIBUTED PARAMETERS ARE PARAMETERS:
   1   1   1   1   1   1   1   1   1   1
DISTRIBUTED PARAMETERS ARE PARAMETERS:
   1   1   1   1   1   1   1   1   1   1
DISTRIBUTED PARAMETERS ARE PARAMETERS:
   1   1   1   1   1   1   1   1   1   1
DISTRIBUTED PARAMETERS ARE PARAMETERS:
   1   1   1   1   1   1   1   1   1   1
DISTRIBUTED PARAMETERS ARE PARAMETERS:
   1   1   1   1   1   1   1   1   1   1
DISTRIBUTED PARAMETERS ARE PARAMETERS:
   1   1   1   1   1   1   1   1   1   1
DISTRIBUTED PARAMETERS ARE PARAMETERS:
[...]
  0 -0.7348E-04  0 -0.4946E-04  0 -0.3052E-04  0 -0.2053E-04  0 -0.1394E-04
   (  3, 21, 19)  (  3, 21, 19)  (  3, 21, 19)  (  3, 26, 14)  (  3, 20, 20)
  0 -0.9406E-05  0 -0.5970E-05  0 -0.3516E-05  0 -0.1705E-05  0 -0.9653E-06
   (  3, 20, 20)  (  3, 20, 20)  (  3, 20, 20)  (  3, 20, 20)  (  3, 26, 14)
  0 -0.6442E-06  0 -0.4600E-06  0 -0.2774E-06  0 -0.1796E-06  0 -0.1263E-06
   (  3, 19, 21)  (  3, 19, 21)  (  3, 19, 21)  (  3, 19, 21)  (  3, 19, 21)
  0 -0.8730E-07  0 -0.5421E-07  0 -0.3928E-07  0 -0.1998E-07  1 -0.2518E-07
   (  3, 19, 21)  (  3, 19, 21)  (  3, 19, 21)  (  3, 19, 21)  (  3, 23, 17)


 SUM OF POSITIVE RATES= 1.00000E+00    SUM OF NEGATIVE RATES= 1.00000E+00
               PERCENT DISCREPANCY=-1.01E-06
        SENSITIVITY CALCULATION FOR GLOBAL OBSERVATION 31 obs3_07     


     2 CALLS TO PCG ROUTINE FOR TIME STEP   1 IN STRESS PERIOD    1
    40 TOTAL ITERATIONS

 MAXIMUM HEAD CHANGE FOR EACH ITERATION (1 INDICATES THE FIRST INNER ITERATION):

    HEAD CHANGE    HEAD CHANGE    HEAD CHANGE    HEAD CHANGE    HEAD CHANGE 
   LAYER,ROW,COL  LAYER,ROW,COL  LAYER,ROW,COL  LAYER,ROW,COL  LAYER,ROW,COL
 ---------------------------------------------------------------------------
  1   178.6      0   100.7      0   60.12      0   29.25      0  -20.40    
   (  3,  6, 20)  (  3,  6, 20)  (  3,  6, 20)  (  3,  6, 20)  (  2, 38, 29)
  0  -13.71      0   8.214      0  -4.639      0   3.450      0  -2.334    
   (  3,  1, 12)  (  3,  8, 19)  (  3,  1, 13)  (  2, 38, 25)  (  2, 30, 21)
  0  -1.205      0   1.604      0 -0.8956      0  0.4355      0  0.1788    
   (  2, 16, 22)  (  2,  7, 20)  (  2, 13, 23)  (  3, 31, 20)  (  2, 33, 25)
  0 -0.1713      0 -0.1132      0 -0.8070E-01  0  0.6065E-01  0  0.2403E-01
   (  3, 24, 16)  (  3,  1, 22)  (  2, 27, 16)  (  2, 35, 20)  (  3, 29, 16)
  0 -0.1346E-01  0 -0.1345E-01  0  0.1246E-01  0  0.7798E-02  0 -0.6362E-02
   (  2, 39, 21)  (  2,  7, 25)  (  2, 21, 22)  (  2, 10, 27)  (  2,  8, 26)
  0 -0.3208E-02  0 -0.1337E-02  0  0.7452E-03  0  0.4511E-03  0 -0.3335E-03
   (  3, 34, 16)  (  3,  1, 23)  (  3, 39, 18)  (  2, 39, 21)  (  2, 32, 16)
  0 -0.2160E-03  0  0.1056E-03  0  0.6359E-04  0 -0.5207E-04  0  0.2835E-04
   (  2,  5, 26)  (  2,  8, 27)  (  3, 21, 22)  (  3, 12, 16)  (  2, 37, 20)
  0  0.2431E-04  0 -0.1782E-04  0  0.1352E-04  0 -0.9299E-05  1 -0.5092E-05
   (  2, 13, 21)  (  2, 17, 21)  (  2, 33, 27)  (  2, 29, 23)  (  3,  5, 15)

 MAXIMUM RESIDUAL FOR EACH ITERATION (1 INDICATES THE FIRST INNER ITERATION):

    RESIDUAL       RESIDUAL       RESIDUAL       RESIDUAL       RESIDUAL    
   LAYER,ROW,COL  LAYER,ROW,COL  LAYER,ROW,COL  LAYER,ROW,COL  LAYER,ROW,COL
 ---------------------------------------------------------------------------
  1 -0.8104      0 -0.5699      0 -0.3449      0 -0.2013      0 -0.1039    
   (  3,  6, 20)  (  3,  6, 20)  (  3,  6, 20)  (  3,  6, 20)  (  3,  6, 20)
  0 -0.6998E-01  0 -0.5518E-01  0 -0.3316E-01  0 -0.2036E-01  0 -0.1271E-01
   (  3,  7, 19)  (  3,  5, 21)  (  3,  5, 21)  (  3,  7, 19)  (  3,  7, 19)
  0 -0.7583E-02  0 -0.4489E-02  0 -0.2657E-02  0 -0.1811E-02  0 -0.1304E-02
   (  3,  7, 19)  (  3,  7, 19)  (  3,  8, 18)  (  3,  8, 18)  (  3,  8, 18)
  0 -0.8673E-03  0 -0.5300E-03  0 -0.3072E-03  0 -0.1967E-03  0 -0.1302E-03
   (  3,  8, 18)  (  3,  8, 18)  (  3,  8, 18)  (  3,  4, 22)  (  3,  4, 22)
  0 -0.8712E-04  0 -0.4783E-04  0 -0.3415E-04  0 -0.2299E-04  0 -0.1463E-04
   (  3,  4, 22)  (  3,  4, 22)  (  3,  4, 22)  (  3,  9, 17)  (  3,  9, 17)
  0 -0.9082E-05  0 -0.5956E-05  0 -0.3672E-05  0 -0.1867E-05  0 -0.9603E-06
   (  3,  3, 23)  (  3,  3, 23)  (  3,  3, 23)  (  3,  3, 23)  (  3,  3, 23)
  0 -0.5839E-06  0 -0.3923E-06  0 -0.2810E-06  0 -0.1901E-06  0 -0.1132E-06
   (  3,  2, 24)  (  3,  2, 24)  (  3,  2, 24)  (  3,  2, 24)  (  3,  2, 24)
  0 -0.6922E-07  0 -0.4767E-07  0  0.3085E-07  0  0.2172E-07  1  0.1908E-07
   (  3,  2, 24)  (  3,  2, 24)  (  3,  1, 24)  (  3,  1, 24)  (  3,  1, 24)


 SUM OF POSITIVE RATES= 1.00000E+00    SUM OF NEGATIVE RATES= 1.00000E+00
               PERCENT DISCREPANCY= 4.55E-06
        SENSITIVITY CALCULATION FOR GLOBAL OBSERVATION 32 obs3_08     


     2 CALLS TO PCG ROUTINE FOR TIME STEP   1 IN STRESS PERIOD    1
    38 TOTAL ITERATIONS

 MAXIMUM HEAD CHANGE FOR EACH ITERATION (1 INDICATES THE FIRST INNER ITERATION):

    HEAD CHANGE    HEAD CHANGE    HEAD CHANGE    HEAD CHANGE    HEAD CHANGE 
   LAYER,ROW,COL  LAYER,ROW,COL  LAYER,ROW,COL  LAYER,ROW,COL  LAYER,ROW,COL
 ---------------------------------------------------------------------------
  1   265.6      0   56.67      0  -21.27      0  -15.64      0  -9.747    
   (  3, 25,  5)  (  3, 25,  5)  (  3, 40, 26)  (  3, 37, 21)  (  2, 25, 24)
  0   6.379      0   4.693      0   3.960      0  -2.700      0  -1.499    
   (  2, 11, 19)  (  3, 37, 18)  (  2, 10, 22)  (  2, 11, 23)  (  2, 29, 20)
  0   1.076      0 -0.5649      0  0.3076      0  0.2338      0 -0.2074    
   (  2, 39, 26)  (  2,  8, 24)  (  2,  8, 25)  (  3,  7, 16)  (  2, 11, 26)
  0  0.1258      0  0.4015E-01  0 -0.3828E-01  0 -0.3750E-01  0  0.2273E-01
   (  2,  8, 26)  (  2, 31, 18)  (  2,  9, 27)  (  2, 37, 20)  (  2, 35, 18)
  0 -0.1216E-01  0 -0.5370E-02  0  0.3753E-02  0 -0.3882E-02  0  0.3258E-02
   (  2,  7, 28)  (  2, 34, 17)  (  2,  7, 28)  (  2, 20, 21)  (  2, 25, 22)
  0 -0.1834E-02  0  0.1703E-02  0  0.7460E-03  0 -0.4670E-03  0  0.2059E-03
   (  2, 35, 15)  (  2,  4, 26)  (  2, 32, 13)  (  2, 35, 15)  (  2,  7, 30)
  0  0.1035E-03  0 -0.8887E-04  0  0.5337E-04  0 -0.4568E-04  0  0.2279E-04
   (  2, 40, 17)  (  2,  5, 29)  (  2, 11, 21)  (  2, 14, 23)  (  2, 38, 14)
  0 -0.1574E-04  0  0.6078E-05  1 -0.6442E-05
   (  2,  6, 29)  (  2,  1,  9)  (  2, 18, 20)

 MAXIMUM RESIDUAL FOR EACH ITERATION (1 INDICATES THE FIRST INNER ITERATION):

    RESIDUAL       RESIDUAL       RESIDUAL       RESIDUAL       RESIDUAL    
   LAYER,ROW,COL  LAYER,ROW,COL  LAYER,ROW,COL  LAYER,ROW,COL  LAYER,ROW,COL
 ---------------------------------------------------------------------------
  1 -0.4255      0 -0.2059      0 -0.1232      0 -0.6751E-01  0 -0.5408E-01
   (  3, 25,  5)  (  3, 25,  5)  (  3, 25,  5)  (  3, 25,  5)  (  3, 24,  6)
  0 -0.4079E-01  0 -0.2761E-01  0 -0.1684E-01  0 -0.1089E-01  0 -0.6623E-02
   (  3, 24,  6)  (  3, 24,  6)  (  3, 24,  6)  (  3, 26,  4)  (  3, 26,  4)
  0 -0.4229E-02  0 -0.2190E-02  0 -0.1558E-02  0 -0.1066E-02  0 -0.7294E-03
   (  3, 26,  4)  (  3, 26,  4)  (  3, 23,  7)  (  3, 23,  7)  (  3, 27,  3)
  0 -0.5079E-03  0 -0.3845E-03  0 -0.2552E-03  0 -0.1624E-03  0 -0.9724E-04
   (  3, 27,  3)  (  3, 27,  3)  (  3, 27,  3)  (  3, 27,  3)  (  3, 27,  3)
  0 -0.5464E-04  0 -0.3508E-04  0 -0.1965E-04  0 -0.1236E-04  0 -0.9546E-05
   (  3, 27,  3)  (  3, 27,  3)  (  3, 27,  3)  (  3, 28,  2)  (  3, 28,  2)
  0 -0.6186E-05  0 -0.3824E-05  0 -0.2233E-05  0 -0.1291E-05  0  0.7995E-06
   (  3, 28,  2)  (  3, 28,  2)  (  3, 28,  2)  (  3, 28,  2)  (  3, 27,  2)
  0  0.5151E-06  0  0.3100E-06  0  0.1875E-06  0  0.1300E-06  0  0.7207E-07
   (  3, 27,  2)  (  3, 27,  2)  (  3, 27,  2)  (  3, 27,  2)  (  3, 27,  2)
  0  0.3941E-07  0  0.2447E-07  1  0.2189E-07
   (  3, 29,  2)  (  3, 29,  2)  (  3, 29,  2)


 SUM OF POSITIVE RATES= 1.00000E+00    SUM OF NEGATIVE RATES= 1.00000E+00
               PERCENT DISCREPANCY= 1.04E-06
        SENSITIVITY CALCULATION FOR GLOBAL OBSERVATION 33 obs3_09     


     2 CALLS TO PCG ROUTINE FOR TIME STEP   1 IN STRESS PERIOD    1
    39 TOTAL ITERATIONS

 MAXIMUM HEAD CHANGE FOR EACH ITERATION (1 INDICATES THE FIRST INNER ITERATION):

    HEAD CHANGE    HEAD CHANGE    HEAD CHANGE    HEAD CHANGE    HEAD CHANGE 
   LAYER,ROW,COL  LAYER,ROW,COL  LAYER,ROW,COL  LAYER,ROW,COL  LAYER,ROW,COL
 ---------------------------------------------------------------------------
  1   115.5      0   111.5      0   54.23      0   21.51      0  -17.28    
   (  3, 27, 26)  (  3, 27, 26)  (  3, 27, 26)  (  2, 27, 25)  (  2, 18, 20)
  0   9.998      0  -8.291      0   5.095      0  -3.454      0  -2.817    
   (  3, 29, 24)  (  3, 40, 28)  (  2, 30, 22)  (  2, 40, 27)  (  2, 13, 23)
  0   1.862      0  -1.157      0  0.4402      0  0.1918      0 -0.1922    
   (  2, 11, 23)  (  2, 14, 26)  (  3, 11, 17)  (  2, 31, 22)  (  3, 17, 30)
  0 -0.2169      0  0.1306      0 -0.7935E-01  0  0.2531E-01  0 -0.1931E-01
   (  3, 36, 23)  (  3, 40, 25)  (  3, 38, 21)  (  3, 26, 14)  (  2, 24, 24)
  0  0.2320E-01  0 -0.1118E-01  0 -0.5819E-02  0 -0.3126E-02  0  0.3446E-02
   (  2, 20, 21)  (  2, 26, 23)  (  3, 33, 23)  (  3,  1, 18)  (  2, 35, 20)
  0 -0.2864E-02  0  0.1335E-02  0  0.6460E-03  0 -0.4027E-03  0 -0.2636E-03
   (  2, 31, 18)  (  2, 40, 24)  (  2, 12, 27)  (  2,  9, 26)  (  2, 13, 23)
  0 -0.1670E-03  0 -0.1691E-03  0  0.8921E-04  0 -0.4280E-04  0 -0.3930E-04
   (  2, 29, 22)  (  2,  8, 27)  (  2,  6, 26)  (  3, 12, 16)  (  2,  8, 28)
  0  0.2302E-04  0 -0.2050E-04  0  0.9455E-05  1 -0.4070E-05
   (  2, 20, 22)  (  2, 20, 21)  (  2, 36, 17)  (  2,  7, 27)

 MAXIMUM RESIDUAL FOR EACH ITERATION (1 INDICATES THE FIRST INNER ITERATION):

    RESIDUAL       RESIDUAL       RESIDUAL       RESIDUAL       RESIDUAL    
   LAYER,ROW,COL  LAYER,ROW,COL  LAYER,ROW,COL  LAYER,ROW,COL  LAYER,ROW,COL
 ---------------------------------------------------------------------------
  1 -0.8532      0 -0.5349      0 -0.2950      0 -0.1893      0 -0.1057    
   (  3, 27, 26)  (  3, 27, 26)  (  3, 27, 26)  (  3, 27, 26)  (  3, 27, 26)
  0 -0.6852E-01  0 -0.4900E-01  0 -0.3238E-01  0 -0.2229E-01  0 -0.1326E-01
   (  3, 26, 27)  (  3, 28, 25)  (  3, 28, 25)  (  3, 28, 25)  (  3, 28, 25)
  0 -0.8138E-02  0 -0.4586E-02  0 -0.2428E-02  0 -0.1958E-02  0 -0.1249E-02
   (  3, 28, 25)  (  3, 28, 25)  (  3, 29, 24)  (  3, 29, 24)  (  3, 29, 24)
  0 -0.8185E-03  0 -0.4684E-03  0 -0.2702E-03  0 -0.1555E-03  0 -0.1118E-03
   (  3, 25, 28)  (  3, 29, 24)  (  3, 29, 24)  (  3, 29, 24)  (  3, 29, 24)
  0 -0.7439E-04  0 -0.4671E-04  0 -0.2885E-04  0 -0.1904E-04  0 -0.1186E-04
   (  3, 29, 24)  (  3, 29, 24)  (  3, 30, 23)  (  3, 30, 23)  (  3, 30, 23)
  0 -0.8165E-05  0 -0.5227E-05  0 -0.2828E-05  0 -0.1616E-05  0 -0.9308E-06
   (  3, 30, 23)  (  3, 30, 23)  (  3, 30, 23)  (  3, 30, 23)  (  3, 30, 23)
  0 -0.6904E-06  0 -0.4470E-06  0 -0.3077E-06  0 -0.2331E-06  0 -0.1175E-06
   (  3, 31, 22)  (  3, 31, 22)  (  3, 31, 22)  (  3, 31, 22)  (  3, 31, 22)
  0 -0.8383E-07  0 -0.5687E-07  0 -0.3093E-07  1 -0.2727E-07
   (  3, 31, 22)  (  3, 23, 30)  (  3, 23, 30)  (  3, 31, 22)


 SUM OF POSITIVE RATES= 1.00000E+00    SUM OF NEGATIVE RATES= 1.00000E+00
               PERCENT DISCREPANCY=-2.66E-06
        SENSITIVITY CALCULATION FOR GLOBAL OBSERVATION 34 obs3_10     


     2 CALLS TO PCG ROUTINE FOR TIME STEP   1 IN STRESS PERIOD    1
    39 TOTAL ITERATIONS

 MAXIMUM HEAD CHANGE FOR EACH ITERATION (1 INDICATES THE FIRST INNER ITERATION):

    HEAD CHANGE    HEAD CHANGE    HEAD CHANGE    HEAD CHANGE    HEAD CHANGE 
   LAYER,ROW,COL  LAYER,ROW,COL  LAYER,ROW,COL  LAYER,ROW,COL  LAYER,ROW,COL
 ---------------------------------------------------------------------------
  1   297.7      0   102.7      0   44.82      0   25.42      0   15.15    
   (  3, 38, 17)  (  3, 38, 17)  (  3, 38, 17)  (  3, 38, 17)  (  3, 38, 17)
  0  -10.68      0  -7.868      0  -5.496      0   2.825      0  -2.624    
   (  3, 33,  8)  (  2, 13, 23)  (  3, 40, 27)  (  3, 37, 18)  (  2, 28, 20)
  0  -1.215      0  0.9538      0 -0.8224      0  0.7398      0 -0.3591    
   (  3, 39, 28)  (  2, 16, 24)  (  2, 12, 25)  (  2,  8, 24)  (  2,  8, 25)
  0 -0.1595      0  0.1053      0  0.1295      0  0.4791E-01  0  0.3564E-01
   (  2, 40, 22)  (  2, 11, 28)  (  2, 36, 20)  (  3, 40, 28)  (  2,  7, 27)
  0 -0.9590E-02  0 -0.8937E-02  0  0.7876E-02  0 -0.8042E-02  0  0.4383E-02
   (  3, 28, 22)  (  2, 22, 25)  (  3,  6, 25)  (  2, 25, 23)  (  2, 40, 30)
  0 -0.3616E-02  0 -0.1950E-02  0  0.8651E-03  0 -0.4357E-03  0 -0.3368E-03
   (  2,  8, 27)  (  2, 37, 16)  (  2, 32, 14)  (  3, 31, 21)  (  2, 35, 16)
  0  0.2023E-03  0 -0.1266E-03  0 -0.1073E-03  0 -0.5059E-04  0  0.3715E-04
   (  3,  7, 27)  (  3,  4, 25)  (  2, 12, 22)  (  3, 33, 18)  (  3, 28, 17)
  0  0.1490E-04  0 -0.1580E-04  0  0.8080E-05  1 -0.4207E-05
   (  2, 38, 27)  (  2, 27, 24)  (  2, 19, 20)  (  2, 14, 18)

 MAXIMUM RESIDUAL FOR EACH ITERATION (1 INDICATES THE FIRST INNER ITERATION):

    RESIDUAL       RESIDUAL       RESIDUAL       RESIDUAL       RESIDUAL    
   LAYER,ROW,COL  LAYER,ROW,COL  LAYER,ROW,COL  LAYER,ROW,COL  LAYER,ROW,COL
 ---------------------------------------------------------------------------
  1 -0.6807      0 -0.4235      0 -0.2732      0 -0.1643      0 -0.8699E-01
   (  3, 38, 17)  (  3, 38, 17)  (  3, 38, 17)  (  3, 38, 17)  (  3, 38, 17)
  0 -0.6266E-01  0 -0.4593E-01  0 -0.3140E-01  0 -0.1928E-01  0 -0.1351E-01
   (  3, 37, 18)  (  3, 37, 18)  (  3, 37, 18)  (  3, 39, 16)  (  3, 39, 16)
  0 -0.8192E-02  0 -0.5214E-02  0  0.3073E-02  0  0.2044E-02  0  0.1064E-02
   (  3, 39, 16)  (  3, 39, 16)  (  3, 40, 16)  (  3, 40, 16)  (  3, 40, 16)
  0 -0.8224E-03  0 -0.5502E-03  0 -0.3675E-03  0 -0.2098E-03  0 -0.1239E-03
   (  3, 40, 15)  (  3, 40, 15)  (  3, 40, 15)  (  3, 40, 15)  (  3, 40, 15)
  0 -0.7801E-04  0 -0.5278E-04  0 -0.3266E-04  0 -0.2350E-04  0 -0.1351E-04
   (  3, 40, 15)  (  3, 36, 19)  (  3, 36, 19)  (  3, 36, 19)  (  3, 36, 19)
  0 -0.8130E-05  0 -0.5423E-05  0 -0.3557E-05  0 -0.2051E-05  0 -0.1213E-05
   (  3, 35, 20)  (  3, 35, 20)  (  3, 35, 20)  (  3, 35, 20)  (  3, 35, 20)
  0 -0.6964E-06  0 -0.3242E-06  0 -0.2525E-06  0 -0.1717E-06  0 -0.1089E-06
   (  3, 35, 20)  (  3, 35, 20)  (  3, 34, 21)  (  3, 34, 21)  (  3, 34, 21)
  0 -0.6815E-07  0 -0.5224E-07  0 -0.3348E-07  1 -0.2863E-07
   (  3, 34, 21)  (  3, 34, 21)  (  3, 34, 21)  (  3, 34, 21)


        SENSITIVITY CALCULATION FOR GLOBAL OBSERVATION 35 obs3_11     


     2 CALLS TO PCG ROUTINE FOR TIME STEP   1 IN STRESS PERIOD    1
    40 TOTAL ITERATIONS

 MAXIMUM HEAD CHANGE FOR EACH ITERATION (1 INDICATES THE FIRST INNER ITERATION):

    HEAD CHANGE    HEAD CHANGE    HEAD CHANGE    HEAD CHANGE    HEAD CHANGE 
   LAYER,ROW,COL  LAYER,ROW,COL  LAYER,ROW,COL  LAYER,ROW,COL  LAYER,ROW,COL
 ---------------------------------------------------------------------------
  1   126.0      0   113.4      0   54.88      0   28.62      0   16.29    
   (  3, 13, 18)  (  3, 13, 18)  (  3, 13, 18)  (  2, 15, 19)  (  3, 11, 20)
  0  -12.22      0  -8.471      0   4.765      0  -3.555      0  -2.785    
   (  3,  1, 16)  (  3, 23, 19)  (  3, 10, 22)  (  2, 30, 21)  (  2, 17, 25)
  0   2.045      0  -1.337      0  0.4859      0  0.1987      0 -0.2537    
   (  2,  9, 22)  (  2, 16, 27)  (  2,  8, 23)  (  1, 15, 18)  (  3,  1, 21)
  0 -0.1858      0  0.1196      0 -0.6325E-01  0 -0.3460E-01  0  0.3220E-01
   (  3, 23, 15)  (  3, 37, 22)  (  3, 26, 13)  (  2,  5, 22)  (  2, 15, 17)
  0 -0.2082E-01  0  0.1253E-01  0 -0.5193E-02  0 -0.2222E-02  0  0.2057E-02
   (  2, 17, 20)  (  2, 39, 28)  (  2, 40, 28)  (  1, 16, 22)  (  1, 12, 20)
  0  0.1609E-02  0 -0.8370E-03  0  0.7396E-03  0  0.2815E-03  0  0.2004E-03
   (  2,  7, 25)  (  3, 11, 21)  (  3,  2, 16)  (  2,  5, 27)  (  3,  6, 12)
  0 -0.1685E-03  0  0.1056E-03  0  0.7702E-04  0  0.5064E-04  0 -0.4167E-04
   (  3, 15, 16)  (  3, 40, 29)  (  2,  6, 26)  (  2, 37, 25)  (  2, 32, 25)
  0  0.2956E-04  0 -0.2243E-04  0  0.1489E-04  0 -0.8840E-05  1 -0.4100E-05
   (  2, 12, 20)  (  2, 20, 22)  (  2, 38, 19)  (  2, 34, 16)  (  3, 13, 18)

 MAXIMUM RESIDUAL FOR EACH ITERATION (1 INDICATES THE FIRST INNER ITERATION):

    RESIDUAL       RESIDUAL       RESIDUAL       RESIDUAL       RESIDUAL    
   LAYER,ROW,COL  LAYER,ROW,COL  LAYER,ROW,COL  LAYER,ROW,COL  LAYER,ROW,COL
 ---------------------------------------------------------------------------
  1 -0.8645      0 -0.5620      0 -0.3287      0 -0.2005      0 -0.1120    
   (  3, 13, 18)  (  3, 13, 18)  (  3, 13, 18)  (  3, 13, 18)  (  3, 13, 18)
  0 -0.7042E-01  0 -0.5051E-01  0 -0.3279E-01  0 -0.2370E-01  0 -0.1321E-01
   (  3, 12, 19)  (  3, 14, 17)  (  3, 12, 19)  (  3, 12, 19)  (  3, 12, 19)
  0 -0.8214E-02  0 -0.4596E-02  0 -0.2483E-02  0 -0.1951E-02  0 -0.1210E-02
   (  3, 12, 19)  (  3, 12, 19)  (  3, 11, 20)  (  3, 11, 20)  (  3, 15, 16)
  0 -0.8252E-03  0 -0.4463E-03  0 -0.2637E-03  0 -0.1673E-03  0 -0.1046E-03
   (  3, 11, 20)  (  3, 11, 20)  (  3, 11, 20)  (  3, 11, 20)  (  3, 11, 20)
  0 -0.7456E-04  0 -0.3749E-04  0 -0.2603E-04  0 -0.1882E-04  0 -0.1222E-04
   (  3, 11, 20)  (  3, 11, 20)  (  3, 10, 21)  (  3, 10, 21)  (  3, 10, 21)
  0 -0.8165E-05  0 -0.5095E-05  0 -0.2463E-05  0 -0.1294E-05  0 -0.7190E-06
   (  3, 10, 21)  (  3, 10, 21)  (  3, 10, 21)  (  3, 10, 21)  (  3, 10, 21)
  0 -0.5704E-06  0 -0.4297E-06  0 -0.2791E-06  0 -0.1871E-06  0 -0.1157E-06
   (  3,  9, 22)  (  3,  9, 22)  (  3,  9, 22)  (  3,  9, 22)  (  3,  9, 22)
  0 -0.8115E-07  0 -0.5056E-07  0 -0.2692E-07  0 -0.1629E-07  1 -0.1473E-07
   (  3,  9, 22)  (  3,  9, 22)  (  3, 17, 14)  (  3,  8, 23)  (  3,  8, 23)


 SUM OF POSITIVE RATES= 1.00000E+00    SUM OF NEGATIVE RATES= 1.00000E+00
               PERCENT DISCREPANCY= 2.76E-06
        SENSITIVITY CALCULATION FOR GLOBAL OBSERVATION 36 obs3_12     

 HEAD AND DRAWDOWN OBSERVATIONS
 OBSERVATION      OBSERVED      SIMULATED
   NAME             VALUE         VALUE      DIFFERENCE
 -------------------------------------------------------
 obs1_01         0.00000       59.4768      -59.4768    
 obs1_02         0.00000       58.0134      -58.0134    
 obs1_03         0.00000       59.0472      -59.0472    
 obs1_04         0.00000       57.9729      -57.9729    
 obs1_05         0.00000       59.5663      -59.5663    
 obs1_06         0.00000       58.0581      -58.0581    
 obs1_07         0.00000       58.0911      -58.0911    
 obs1_08         0.00000       58.1812      -58.1812    
 obs1_09         0.00000       59.4885      -59.4885    
 obs1_10         0.00000       58.0582      -58.0582    
 obs1_11         0.00000       58.5711      -58.5711    
 obs1_12         0.00000       58.0258      -58.0258    
 obs2_01         0.00000       59.3746      -59.3746    
 obs2_02         0.00000       57.9069      -57.9069    
 obs2_03         0.00000       58.6800      -58.6800    
 obs2_04         0.00000       57.5492      -57.5492    
 obs2_05         0.00000       59.4773      -59.4773    
 obs2_06         0.00000       57.9795      -57.9795    
 obs2_07         0.00000       56.6354      -56.6354    
 obs2_08         0.00000       57.7049      -57.7049    
 obs2_09         0.00000       59.3433      -59.3433    
 obs2_10         0.00000       57.7580      -57.7580    
 obs2_11         0.00000       58.2766      -58.2766    
 obs2_12         0.00000       56.6601      -56.6601    
 obs3_01         0.00000       59.2574      -59.2574    
 obs3_02         0.00000       57.7902      -57.7902    
 obs3_03         0.00000       58.4680      -58.4680    
 obs3_04         0.00000       57.3136      -57.3136    
 obs3_05         0.00000       59.3530      -59.3530    
 obs3_06         0.00000       57.8848      -57.8848    
 obs3_07         0.00000       56.6244      -56.6244    
 obs3_08         0.00000       57.3593      -57.3593    
 obs3_09         0.00000       59.2206      -59.2206    
 obs3_10         0.00000       57.5323      -57.5323    
 obs3_11         0.00000       57.9509      -57.9509    
 obs3_12         0.00000       56.5602      -56.5602    

 SUM OF SQUARED DIFFERENCE:    1.21969E+05

 Run end date and time (yyyy/mm/dd hh:mm:ss): 2011/10/26 16:25:17
 Elapsed run time:  1.437 Seconds

