                        MODFLOW-ADJOINT Version 0.96 07/14/2007
            SENSITIVITY CALCULATIONS USING THE ADJOINT STATE METHOD FOR
      U.S. GEOLOGICAL SURVEY MODULAR FINITE-DIFFERENCE GROUND-WATER FLOW MODEL
                             VERSION 1.1 05/18/2006

 LIST FILE: three_layers.lst
                         UNIT    7

 OPENING three_layers.bas
 FILE TYPE:BAS6   UNIT    1   STATUS:OLD    
 FORMAT:FORMATTED              ACCESS:SEQUENTIAL          

 OPENING three_layers.dis
 FILE TYPE:DIS   UNIT   29   STATUS:OLD    
 FORMAT:FORMATTED              ACCESS:SEQUENTIAL          

 OPENING three_layers.lpf
 FILE TYPE:LPF   UNIT   11   STATUS:OLD    
 FORMAT:FORMATTED              ACCESS:SEQUENTIAL          

 OPENING three_layers.zon
 FILE TYPE:ZONE   UNIT   13   STATUS:OLD    
 FORMAT:FORMATTED              ACCESS:SEQUENTIAL          

 OPENING three_layers.wel
 FILE TYPE:WEL   UNIT   12   STATUS:OLD    
 FORMAT:FORMATTED              ACCESS:SEQUENTIAL          

 OPENING three_layers.oc
 FILE TYPE:OC   UNIT   22   STATUS:OLD    
 FORMAT:FORMATTED              ACCESS:SEQUENTIAL          

 OPENING three_layers.mlt
 FILE TYPE:MULT   UNIT    8   STATUS:OLD    
 FORMAT:FORMATTED              ACCESS:SEQUENTIAL          

 OPENING three_layers.pcg
 FILE TYPE:PCG   UNIT   19   STATUS:OLD    
 FORMAT:FORMATTED              ACCESS:SEQUENTIAL          

 OPENING three_layers.chd
 FILE TYPE:CHD   UNIT   40   STATUS:OLD    
 FORMAT:FORMATTED              ACCESS:SEQUENTIAL          

 OPENING three_layers.hob
 FILE TYPE:HOB   UNIT   18   STATUS:OLD    
 FORMAT:FORMATTED              ACCESS:SEQUENTIAL          

 OPENING three_layers.hbs
 FILE TYPE:DATA   UNIT   14   STATUS:UNKNOWN
 FORMAT:FORMATTED              ACCESS:SEQUENTIAL          

 OPENING three_layers.cbb
 FILE TYPE:DATA(BINARY)   UNIT   50   STATUS:UNKNOWN
 FORMAT:UNFORMATTED            ACCESS:SEQUENTIAL          

 OPENING three_layers.cbw
 FILE TYPE:DATA(BINARY)   UNIT   54   STATUS:UNKNOWN
 FORMAT:UNFORMATTED            ACCESS:SEQUENTIAL          

 OPENING three_layers.hds
 FILE TYPE:DATA(BINARY)   UNIT   30   STATUS:UNKNOWN
 FORMAT:UNFORMATTED            ACCESS:SEQUENTIAL          

 OPENING three_layers.ddn
 FILE TYPE:DATA(BINARY)   UNIT   31   STATUS:UNKNOWN
 FORMAT:UNFORMATTED            ACCESS:SEQUENTIAL          

 BAS -- BASIC PACKAGE, VERSION 7, 5/2/2005 INPUT READ FROM UNIT    1

 DISCRETIZATION INPUT DATA READ FROM UNIT   29
 # Discretization File
 # Upper left corner: (0, 0)
 # Lower left corner: (0, -60)
 # Upper right corner: (70, 0)
 # Lower right corner: (70, -60)
    3 LAYERS        40 ROWS        35 COLUMNS
    1 STRESS PERIOD(S) IN SIMULATION
 MODEL TIME UNIT IS SECONDS
 MODEL LENGTH UNIT IS METERS
  Confining bed flag for each layer:
   0   0   0

                     DELR =   2.00000    

                     DELC =   1.50000    

 TOP ELEVATION OF LAYER 1 =   40.0000    

   MODEL LAYER BOTTOM EL. =   32.0000     FOR LAYER   1

   MODEL LAYER BOTTOM EL. =   18.0000     FOR LAYER   2

   MODEL LAYER BOTTOM EL. =   0.00000     FOR LAYER   3


 STRESS PERIOD     LENGTH       TIME STEPS     MULTIPLIER FOR DELT    SS FLAG
 ----------------------------------------------------------------------------
        1         1.000000          1                    1.000         SS

 STEADY-STATE SIMULATION



 
 # Basic Package file created                                                    
 THE FREE FORMAT OPTION HAS BEEN SELECTED

           BOUNDARY ARRAY =              1 FOR LAYER   1

           BOUNDARY ARRAY =              1 FOR LAYER   2

           BOUNDARY ARRAY =              1 FOR LAYER   3

 AQUIFER HEAD WILL BE SET TO  999.00     AT ALL NO-FLOW NODES (IBOUND=0).

             INITIAL HEAD =   60.0000     FOR LAYER   1

             INITIAL HEAD =   60.0000     FOR LAYER   2

             INITIAL HEAD =   60.0000     FOR LAYER   3

 OUTPUT CONTROL IS SPECIFIED ONLY AT TIME STEPS FOR WHICH OUTPUT IS DESIRED
 HEAD PRINT FORMAT CODE IS   0    DRAWDOWN PRINT FORMAT CODE IS   0
 HEADS WILL BE SAVED ON UNIT   30    DRAWDOWNS WILL BE SAVED ON UNIT   31

 ZONE OPTION, INPUT READ FROM UNIT   13
 # Zone (ZONE) File
     3 ZONE ARRAYS

 MULTIPLIER OPTION, INPUT READ FROM UNIT    8
 # Multiplier (MULT)
   3 MULTIPLIER ARRAYS



            MULT. ARRAY: HK_Par1_M1
 READING ON UNIT    8 WITH FORMAT: (FREE)              

            1           2           3           4           5           6           7           8           9          10
           11          12          13          14          15          16          17          18          19          20
           21          22          23          24          25          26          27          28          29          30
           31          32          33          34          35
 ........................................................................................................................
   1   1.0470E-03  1.0596E-03  1.0741E-03  1.0906E-03  1.1086E-03  1.1275E-03  1.1468E-03  1.1655E-03  1.1830E-03  1.1984E-03
       1.2110E-03  1.2201E-03  1.2254E-03  1.2265E-03  1.2235E-03  1.2164E-03  1.2057E-03  1.1920E-03  1.1761E-03  1.1591E-03
       1.1422E-03  1.1264E-03  1.1125E-03  1.1003E-03  1.0899E-03  1.0810E-03  1.0734E-03  1.0668E-03  1.0610E-03  1.0559E-03
       1.0514E-03  1.0471E-03  1.0430E-03  1.0390E-03  1.0350E-03
   2   1.0392E-03  1.0519E-03  1.0669E-03  1.0841E-03  1.1031E-03  1.1234E-03  1.1441E-03  1.1643E-03  1.1832E-03  1.1999E-03
       1.2135E-03  1.2234E-03  1.2291E-03  1.2302E-03  1.2267E-03  1.2189E-03  1.2072E-03  1.1921E-03  1.1746E-03  1.1559E-03
       1.1375E-03  1.1207E-03  1.1061E-03  1.0937E-03  1.0833E-03  1.0745E-03  1.0671E-03  1.0607E-03  1.0552E-03  1.0504E-03
       1.0461E-03  1.0421E-03  1.0383E-03  1.0344E-03  1.0305E-03
   3   1.0307E-03  1.0435E-03  1.0587E-03  1.0765E-03  1.0966E-03  1.1181E-03  1.1402E-03  1.1618E-03  1.1821E-03  1.2001E-03
       1.2147E-03  1.2253E-03  1.2312E-03  1.2323E-03  1.2284E-03  1.2198E-03  1.2070E-03  1.1907E-03  1.1718E-03  1.1515E-03
       1.1317E-03  1.1139E-03  1.0990E-03  1.0865E-03  1.0762E-03  1.0676E-03  1.0604E-03  1.0543E-03  1.0491E-03  1.0446E-03
       1.0406E-03  1.0369E-03  1.0332E-03  1.0296E-03  1.0258E-03
   4   1.0216E-03  1.0343E-03  1.0497E-03  1.0680E-03  1.0889E-03  1.1116E-03  1.1349E-03  1.1580E-03  1.1796E-03  1.1988E-03
       1.2144E-03  1.2255E-03  1.2317E-03  1.2326E-03  1.2282E-03  1.2188E-03  1.2050E-03  1.1876E-03  1.1673E-03  1.1456E-03
       1.1244E-03  1.1061E-03  1.0910E-03  1.0787E-03  1.0686E-03  1.0603E-03  1.0534E-03  1.0476E-03  1.0427E-03  1.0384E-03
       1.0348E-03  1.0314E-03  1.0279E-03  1.0244E-03  1.0209E-03
   5   1.0120E-03  1.0244E-03  1.0399E-03  1.0585E-03  1.0802E-03  1.1038E-03  1.1284E-03  1.1528E-03  1.1757E-03  1.1960E-03
       1.2125E-03  1.2242E-03  1.2304E-03  1.2310E-03  1.2259E-03  1.2156E-03  1.2008E-03  1.1822E-03  1.1609E-03  1.1379E-03
       1.1157E-03  1.0973E-03  1.0824E-03  1.0704E-03  1.0607E-03  1.0527E-03  1.0461E-03  1.0406E-03  1.0360E-03  1.0321E-03
       1.0287E-03  1.0256E-03  1.0224E-03  1.0191E-03  1.0157E-03
   6   1.0018E-03  1.0139E-03  1.0293E-03  1.0482E-03  1.0704E-03  1.0949E-03  1.1206E-03  1.1462E-03  1.1705E-03  1.1919E-03
       1.2092E-03  1.2213E-03  1.2275E-03  1.2276E-03  1.2217E-03  1.2103E-03  1.1942E-03  1.1745E-03  1.1520E-03  1.1278E-03
       1.1055E-03  1.0877E-03  1.0733E-03  1.0618E-03  1.0524E-03  1.0448E-03  1.0386E-03  1.0335E-03  1.0292E-03  1.0255E-03
       1.0224E-03  1.0195E-03  1.0165E-03  1.0135E-03  1.0103E-03
   7   9.9127E-04  1.0029E-03  1.0181E-03  1.0371E-03  1.0596E-03  1.0848E-03  1.1116E-03  1.1386E-03  1.1641E-03  1.1866E-03
       1.2046E-03  1.2169E-03  1.2229E-03  1.2224E-03  1.2155E-03  1.2029E-03  1.1855E-03  1.1644E-03  1.1408E-03  1.1164E-03
       1.0951E-03  1.0778E-03  1.0640E-03  1.0529E-03  1.0440E-03  1.0368E-03  1.0310E-03  1.0262E-03  1.0222E-03  1.0188E-03
       1.0159E-03  1.0132E-03  1.0105E-03  1.0076E-03  1.0047E-03
   8   9.8041E-04  9.9144E-04  1.0063E-03  1.0252E-03  1.0480E-03  1.0739E-03  1.1017E-03  1.1299E-03  1.1567E-03  1.1803E-03
       1.1989E-03  1.2114E-03  1.2170E-03  1.2157E-03  1.2077E-03  1.1938E-03  1.1751E-03  1.1529E-03  1.1288E-03  1.1051E-03
       1.0845E-03  1.0679E-03  1.0546E-03  1.0440E-03  1.0356E-03  1.0287E-03  1.0232E-03  1.0187E-03  1.0150E-03  1.0119E-03
       1.0092E-03  1.0067E-03  1.0042E-03  1.0016E-03  9.9898E-04
   9   9.6940E-04  9.7971E-04  9.9409E-04  1.0128E-03  1.0358E-03  1.0622E-03  1.0910E-03  1.1205E-03  1.1486E-03  1.1732E-03
       1.1923E-03  1.2048E-03  1.2099E-03  1.2077E-03  1.1985E-03  1.1834E-03  1.1637E-03  1.1408E-03  1.1167E-03  1.0937E-03
       1.0740E-03  1.0580E-03  1.0453E-03  1.0352E-03  1.0271E-03  1.0206E-03  1.0154E-03  1.0112E-03  1.0077E-03  1.0048E-03
       1.0024E-03  1.0001E-03  9.9780E-04  9.9549E-04  9.9309E-04
  10   9.5839E-04  9.6790E-04  9.8168E-04  1.0001E-03  1.0231E-03  1.0501E-03  1.0799E-03  1.1106E-03  1.1400E-03  1.1656E-03
       1.1852E-03  1.1975E-03  1.2019E-03  1.1986E-03  1.1883E-03  1.1721E-03  1.1515E-03  1.1283E-03  1.1045E-03  1.0824E-03
       1.0636E-03  1.0483E-03  1.0361E-03  1.0264E-03  1.0186E-03  1.0124E-03  1.0075E-03  1.0035E-03  1.0003E-03  9.9769E-04
       9.9541E-04  9.9332E-04  9.9129E-04  9.8922E-04  9.8709E-04
  11   9.4758E-04  9.5621E-04  9.6932E-04  9.8734E-04  1.0103E-03  1.0377E-03  1.0684E-03  1.1005E-03  1.1313E-03  1.1577E-03
       1.1776E-03  1.1895E-03  1.1932E-03  1.1888E-03  1.1772E-03  1.1599E-03  1.1387E-03  1.1155E-03  1.0922E-03  1.0711E-03
       1.0533E-03  1.0388E-03  1.0271E-03  1.0177E-03  1.0102E-03  1.0043E-03  9.9958E-04  9.9585E-04  9.9287E-04  9.9043E-04
       9.8836E-04  9.8649E-04  9.8469E-04  9.8287E-04  9.8101E-04
  12   9.3718E-04  9.4490E-04  9.5727E-04  9.7480E-04  9.9756E-04  1.0252E-03  1.0568E-03  1.0904E-03  1.1225E-03  1.1498E-03
       1.1697E-03  1.1811E-03  1.1838E-03  1.1782E-03  1.1654E-03  1.1471E-03  1.1253E-03  1.1023E-03  1.0797E-03  1.0599E-03
       1.0431E-03  1.0294E-03  1.0182E-03  1.0091E-03  1.0019E-03  9.9615E-04  9.9164E-04  9.8811E-04  9.8533E-04  9.8310E-04
       9.8124E-04  9.7958E-04  9.7802E-04  9.7645E-04  9.7486E-04
  13   9.2741E-04  9.3424E-04  9.4587E-04  9.6285E-04  9.8532E-04  1.0131E-03  1.0455E-03  1.0804E-03  1.1140E-03  1.1419E-03
       1.1616E-03  1.1723E-03  1.1738E-03  1.1670E-03  1.1531E-03  1.1337E-03  1.1113E-03  1.0884E-03  1.0672E-03  1.0488E-03
       1.0332E-03  1.0202E-03  1.0094E-03  1.0007E-03  9.9363E-04  9.8804E-04  9.8369E-04  9.8033E-04  9.7774E-04  9.7571E-04
       9.7405E-04  9.7262E-04  9.7130E-04  9.7000E-04  9.6868E-04
  14   9.1848E-04  9.2448E-04  9.3542E-04  9.5187E-04  9.7397E-04  1.0017E-03  1.0346E-03  1.0709E-03  1.1059E-03  1.1340E-03
       1.1531E-03  1.1628E-03  1.1633E-03  1.1554E-03  1.1404E-03  1.1201E-03  1.0972E-03  1.0747E-03  1.0551E-03  1.0381E-03
       1.0236E-03  1.0112E-03  1.0009E-03  9.9232E-04  9.8540E-04  9.7991E-04  9.7569E-04  9.7249E-04  9.7009E-04  9.6826E-04
       9.6682E-04  9.6563E-04  9.6456E-04  9.6352E-04  9.6249E-04
  15   9.1058E-04  9.1586E-04  9.2624E-04  9.4225E-04  9.6402E-04  9.9146E-04  1.0245E-03  1.0620E-03  1.0980E-03  1.1258E-03
       1.1439E-03  1.1525E-03  1.1519E-03  1.1432E-03  1.1276E-03  1.1069E-03  1.0839E-03  1.0624E-03  1.0440E-03  1.0281E-03
       1.0143E-03  1.0024E-03  9.9230E-04  9.8393E-04  9.7712E-04  9.7172E-04  9.6762E-04  9.6459E-04  9.6238E-04  9.6077E-04
       9.5956E-04  9.5862E-04  9.5781E-04  9.5705E-04  9.5630E-04
  16   9.0386E-04  9.0857E-04  9.1856E-04  9.3434E-04  9.5594E-04  9.8315E-04  1.0157E-03  1.0537E-03  1.0899E-03  1.1166E-03
       1.1336E-03  1.1410E-03  1.1397E-03  1.1306E-03  1.1150E-03  1.0944E-03  1.0719E-03  1.0515E-03  1.0340E-03  1.0186E-03
       1.0052E-03  9.9353E-04  9.8364E-04  9.7541E-04  9.6871E-04  9.6342E-04  9.5945E-04  9.5660E-04  9.5461E-04  9.5323E-04
       9.5229E-04  9.5161E-04  9.5107E-04  9.5060E-04  9.5014E-04
  17   8.9843E-04  9.0274E-04  9.1254E-04  9.2834E-04  9.5005E-04  9.7733E-04  1.0098E-03  1.0462E-03  1.0804E-03  1.1060E-03
       1.1219E-03  1.1284E-03  1.1264E-03  1.1173E-03  1.1023E-03  1.0830E-03  1.0613E-03  1.0420E-03  1.0248E-03  1.0095E-03
       9.9604E-04  9.8446E-04  9.7467E-04  9.6659E-04  9.6006E-04  9.5492E-04  9.5113E-04  9.4852E-04  9.4678E-04  9.4568E-04
       9.4501E-04  9.4462E-04  9.4437E-04  9.4419E-04  9.4403E-04
  18   8.9436E-04  8.9840E-04  9.0819E-04  9.2422E-04  9.4626E-04  9.7366E-04  1.0054E-03  1.0395E-03  1.0709E-03  1.0947E-03
       1.1092E-03  1.1146E-03  1.1121E-03  1.1031E-03  1.0892E-03  1.0720E-03  1.0526E-03  1.0333E-03  1.0157E-03  1.0001E-03
       9.8649E-04  9.7490E-04  9.6523E-04  9.5732E-04  9.5101E-04  9.4616E-04  9.4267E-04  9.4034E-04  9.3891E-04  9.3811E-04
       9.3775E-04  9.3766E-04  9.3773E-04  9.3785E-04  9.3798E-04
  19   8.9168E-04  8.9556E-04  9.0546E-04  9.2186E-04  9.4432E-04  9.7175E-04  1.0025E-03  1.0339E-03  1.0622E-03  1.0835E-03
       1.0961E-03  1.1001E-03  1.0968E-03  1.0878E-03  1.0749E-03  1.0597E-03  1.0429E-03  1.0238E-03  1.0058E-03  9.8985E-04
       9.7616E-04  9.6467E-04  9.5520E-04  9.4757E-04  9.4161E-04  9.3714E-04  9.3404E-04  9.3209E-04  9.3100E-04  9.3055E-04
       9.3053E-04  9.3077E-04  9.3116E-04  9.3160E-04  9.3204E-04
  20   8.9042E-04  8.9417E-04  9.0424E-04  9.2108E-04  9.4402E-04  9.7137E-04  1.0009E-03  1.0297E-03  1.0547E-03  1.0730E-03
       1.0832E-03  1.0855E-03  1.0810E-03  1.0715E-03  1.0590E-03  1.0451E-03  1.0298E-03  1.0119E-03  9.9418E-04  9.7836E-04
       9.6486E-04  9.5366E-04  9.4457E-04  9.3738E-04  9.3189E-04  9.2792E-04  9.2530E-04  9.2378E-04  9.2310E-04  9.2303E-04
       9.2338E-04  9.2398E-04  9.2470E-04  9.2546E-04  9.2620E-04
  21   8.9060E-04  8.9423E-04  9.0444E-04  9.2173E-04  9.4518E-04  9.7246E-04  1.0006E-03  1.0268E-03  1.0485E-03  1.0636E-03
       1.0711E-03  1.0713E-03  1.0652E-03  1.0547E-03  1.0419E-03  1.0284E-03  1.0141E-03  9.9753E-04  9.8071E-04  9.6553E-04
       9.5259E-04  9.4195E-04  9.3343E-04  9.2683E-04  9.2195E-04  9.1857E-04  9.1649E-04  9.1547E-04  9.1524E-04  9.1560E-04
       9.1633E-04  9.1730E-04  9.1837E-04  9.1946E-04  9.2051E-04
  22   8.9231E-04  8.9580E-04  9.0604E-04  9.2370E-04  9.4772E-04  9.7495E-04  1.0017E-03  1.0253E-03  1.0437E-03  1.0555E-03
       1.0602E-03  1.0580E-03  1.0501E-03  1.0382E-03  1.0243E-03  1.0103E-03  9.9675E-04  9.8132E-04  9.6577E-04  9.5163E-04
       9.3957E-04  9.2970E-04  9.2192E-04  9.1605E-04  9.1187E-04  9.0916E-04  9.0769E-04  9.0721E-04  9.0747E-04  9.0828E-04
       9.0943E-04  9.1078E-04  9.1221E-04  9.1362E-04  9.1497E-04
  23   8.9567E-04  8.9900E-04  9.0912E-04  9.2694E-04  9.5155E-04  9.7878E-04  1.0041E-03  1.0250E-03  1.0402E-03  1.0489E-03
       1.0507E-03  1.0462E-03  1.0363E-03  1.0228E-03  1.0074E-03  9.9211E-04  9.7809E-04  9.6418E-04  9.5008E-04  9.3719E-04
       9.2617E-04  9.1721E-04  9.1026E-04  9.0518E-04  9.0178E-04  8.9980E-04  8.9898E-04  8.9907E-04  8.9985E-04  9.0112E-04
       9.0271E-04  9.0445E-04  9.0623E-04  9.0797E-04  9.0962E-04
  24   9.0085E-04  9.0409E-04  9.1393E-04  9.3152E-04  9.5660E-04  9.8375E-04  1.0073E-03  1.0256E-03  1.0379E-03  1.0437E-03
       1.0430E-03  1.0362E-03  1.0244E-03  1.0093E-03  9.9254E-04  9.7596E-04  9.6076E-04  9.4748E-04  9.3463E-04  9.2289E-04
       9.1287E-04  9.0480E-04  8.9869E-04  8.9442E-04  8.9180E-04  8.9057E-04  8.9043E-04  8.9112E-04  8.9244E-04  8.9419E-04
       8.9621E-04  8.9834E-04  9.0048E-04  9.0254E-04  9.0448E-04
  25   9.0796E-04  9.1136E-04  9.2097E-04  9.3785E-04  9.6274E-04  9.8940E-04  1.0110E-03  1.0269E-03  1.0367E-03  1.0401E-03
       1.0371E-03  1.0283E-03  1.0148E-03  9.9822E-04  9.8025E-04  9.6259E-04  9.4658E-04  9.3279E-04  9.2037E-04  9.0937E-04
       9.0013E-04  8.9283E-04  8.8748E-04  8.8396E-04  8.8209E-04  8.8161E-04  8.8214E-04  8.8344E-04  8.8530E-04  8.8753E-04
       8.8998E-04  8.9250E-04  8.9498E-04  8.9735E-04  8.9957E-04
  26   9.1703E-04  9.2093E-04  9.3066E-04  9.4718E-04  9.7018E-04  9.9467E-04  1.0147E-03  1.0288E-03  1.0366E-03  1.0380E-03
       1.0331E-03  1.0226E-03  1.0076E-03  9.8978E-04  9.7068E-04  9.5201E-04  9.3508E-04  9.2047E-04  9.0785E-04  8.9710E-04
       8.8835E-04  8.8162E-04  8.7689E-04  8.7401E-04  8.7280E-04  8.7303E-04  8.7422E-04  8.7611E-04  8.7850E-04  8.8120E-04
       8.8407E-04  8.8696E-04  8.8977E-04  8.9244E-04  8.9492E-04
  27   9.2786E-04  9.3254E-04  9.4252E-04  9.5839E-04  9.7917E-04  1.0009E-03  1.0191E-03  1.0316E-03  1.0377E-03  1.0375E-03
       1.0310E-03  1.0192E-03  1.0030E-03  9.8396E-04  9.6377E-04  9.4403E-04  9.2604E-04  9.1044E-04  8.9725E-04  8.8639E-04
       8.7782E-04  8.7146E-04  8.6719E-04  8.6481E-04  8.6413E-04  8.6492E-04  8.6677E-04  8.6924E-04  8.7213E-04  8.7528E-04
       8.7853E-04  8.8176E-04  8.8489E-04  8.8782E-04  8.9054E-04
  28   9.4009E-04  9.4569E-04  9.5590E-04  9.7091E-04  9.8949E-04  1.0086E-03  1.0246E-03  1.0355E-03  1.0402E-03  1.0386E-03
       1.0310E-03  1.0180E-03  1.0007E-03  9.8065E-04  9.5936E-04  9.3847E-04  9.1928E-04  9.0257E-04  8.8860E-04  8.7735E-04
       8.6873E-04  8.6254E-04  8.5859E-04  8.5661E-04  8.5636E-04  8.5759E-04  8.5995E-04  8.6292E-04  8.6627E-04  8.6981E-04
       8.7341E-04  8.7696E-04  8.8035E-04  8.8353E-04  8.8646E-04
  29   9.5330E-04  9.5987E-04  9.7024E-04  9.8432E-04  1.0009E-03  1.0175E-03  1.0314E-03  1.0407E-03  1.0441E-03  1.0415E-03
       1.0329E-03  1.0190E-03  1.0008E-03  9.7972E-04  9.5729E-04  9.3515E-04  9.1465E-04  8.9673E-04  8.8183E-04  8.7002E-04
       8.6116E-04  8.5500E-04  8.5125E-04  8.4957E-04  8.4967E-04  8.5125E-04  8.5395E-04  8.5731E-04  8.6101E-04  8.6487E-04
       8.6877E-04  8.7257E-04  8.7619E-04  8.7958E-04  8.8270E-04
  30   9.6707E-04  9.7458E-04  9.8507E-04  9.9827E-04  1.0130E-03  1.0275E-03  1.0394E-03  1.0471E-03  1.0495E-03  1.0460E-03
       1.0367E-03  1.0221E-03  1.0031E-03  9.8102E-04  9.5742E-04  9.3393E-04  9.1201E-04  8.9279E-04  8.7685E-04  8.6435E-04
       8.5514E-04  8.4890E-04  8.4524E-04  8.4377E-04  8.4412E-04  8.4596E-04  8.4888E-04  8.5247E-04  8.5642E-04  8.6053E-04
       8.6464E-04  8.6864E-04  8.7245E-04  8.7600E-04  8.7927E-04
  31   9.8099E-04  9.8939E-04  1.0000E-03  1.0124E-03  1.0256E-03  1.0381E-03  1.0483E-03  1.0546E-03  1.0560E-03  1.0519E-03
       1.0420E-03  1.0269E-03  1.0073E-03  9.8434E-04  9.5958E-04  9.3466E-04  9.1122E-04  8.9059E-04  8.7353E-04  8.6028E-04
       8.5064E-04  8.4424E-04  8.4058E-04  8.3922E-04  8.3973E-04  8.4171E-04  8.4475E-04  8.4848E-04  8.5257E-04  8.5681E-04
       8.6106E-04  8.6520E-04  8.6913E-04  8.7281E-04  8.7619E-04
  32   9.9466E-04  1.0039E-03  1.0146E-03  1.0263E-03  1.0381E-03  1.0490E-03  1.0577E-03  1.0629E-03  1.0635E-03  1.0588E-03
       1.0487E-03  1.0332E-03  1.0131E-03  9.8944E-04  9.6355E-04  9.3717E-04  9.1211E-04  8.8998E-04  8.7175E-04  8.5770E-04
       8.4760E-04  8.4098E-04  8.3726E-04  8.3593E-04  8.3649E-04  8.3851E-04  8.4159E-04  8.4534E-04  8.4947E-04  8.5376E-04
       8.5807E-04  8.6227E-04  8.6627E-04  8.7001E-04  8.7347E-04
  33   1.0077E-03  1.0177E-03  1.0285E-03  1.0397E-03  1.0503E-03  1.0597E-03  1.0671E-03  1.0714E-03  1.0714E-03  1.0664E-03
       1.0561E-03  1.0406E-03  1.0203E-03  9.9600E-04  9.6910E-04  9.4125E-04  9.1450E-04  8.9079E-04  8.7135E-04  8.5651E-04
       8.4595E-04  8.3908E-04  8.3525E-04  8.3386E-04  8.3438E-04  8.3636E-04  8.3937E-04  8.4306E-04  8.4714E-04  8.5139E-04
       8.5567E-04  8.5985E-04  8.6386E-04  8.6763E-04  8.7112E-04
  34   1.0198E-03  1.0304E-03  1.0414E-03  1.0520E-03  1.0616E-03  1.0698E-03  1.0762E-03  1.0797E-03  1.0792E-03  1.0741E-03
       1.0639E-03  1.0485E-03  1.0282E-03  1.0036E-03  9.7591E-04  9.4667E-04  9.1817E-04  8.9282E-04  8.7220E-04  8.5661E-04
       8.4562E-04  8.3849E-04  8.3449E-04  8.3297E-04  8.3338E-04  8.3522E-04  8.3809E-04  8.4163E-04  8.4557E-04  8.4970E-04
       8.5386E-04  8.5797E-04  8.6192E-04  8.6566E-04  8.6914E-04
  35   1.0307E-03  1.0417E-03  1.0527E-03  1.0629E-03  1.0717E-03  1.0789E-03  1.0845E-03  1.0873E-03  1.0865E-03  1.0814E-03
       1.0713E-03  1.0562E-03  1.0362E-03  1.0117E-03  9.8356E-04  9.5315E-04  9.2288E-04  8.9589E-04  8.7416E-04  8.5794E-04
       8.4656E-04  8.3916E-04  8.3495E-04  8.3323E-04  8.3343E-04  8.3505E-04  8.3770E-04  8.4102E-04  8.4475E-04  8.4867E-04
       8.5265E-04  8.5660E-04  8.6045E-04  8.6410E-04  8.6753E-04
  36   1.0401E-03  1.0513E-03  1.0622E-03  1.0720E-03  1.0802E-03  1.0867E-03  1.0915E-03  1.0938E-03  1.0927E-03  1.0876E-03
       1.0778E-03  1.0632E-03  1.0437E-03  1.0196E-03  9.9147E-04  9.6030E-04  9.2838E-04  8.9980E-04  8.7716E-04  8.6044E-04
       8.4874E-04  8.4107E-04  8.3659E-04  8.3459E-04  8.3449E-04  8.3581E-04  8.3814E-04  8.4117E-04  8.4462E-04  8.4828E-04
       8.5200E-04  8.5575E-04  8.5942E-04  8.6295E-04  8.6629E-04
  37   1.0479E-03  1.0591E-03  1.0696E-03  1.0790E-03  1.0867E-03  1.0927E-03  1.0969E-03  1.0987E-03  1.0973E-03  1.0921E-03
       1.0826E-03  1.0685E-03  1.0498E-03  1.0264E-03  9.9882E-04  9.6758E-04  9.3435E-04  9.0442E-04  8.8118E-04  8.6414E-04
       8.5215E-04  8.4417E-04  8.3934E-04  8.3698E-04  8.3649E-04  8.3742E-04  8.3937E-04  8.4202E-04  8.4512E-04  8.4847E-04
       8.5190E-04  8.5537E-04  8.5883E-04  8.6219E-04  8.6540E-04
  38   1.0540E-03  1.0649E-03  1.0750E-03  1.0839E-03  1.0911E-03  1.0966E-03  1.1002E-03  1.1014E-03  1.0997E-03  1.0945E-03
       1.0852E-03  1.0717E-03  1.0536E-03  1.0312E-03  1.0045E-03  9.7405E-04  9.4050E-04  9.0971E-04  8.8633E-04  8.6906E-04
       8.5676E-04  8.4841E-04  8.4316E-04  8.4033E-04  8.3937E-04  8.3981E-04  8.4129E-04  8.4350E-04  8.4619E-04  8.4917E-04
       8.5228E-04  8.5545E-04  8.5865E-04  8.6180E-04  8.6485E-04
  39   1.0585E-03  1.0689E-03  1.0784E-03  1.0866E-03  1.0933E-03  1.0982E-03  1.1012E-03  1.1019E-03  1.0998E-03  1.0944E-03
       1.0853E-03  1.0722E-03  1.0548E-03  1.0332E-03  1.0074E-03  9.7792E-04  9.4592E-04  9.1611E-04  8.9264E-04  8.7515E-04
       8.6249E-04  8.5368E-04  8.4792E-04  8.4454E-04  8.4301E-04  8.4289E-04  8.4384E-04  8.4554E-04  8.4776E-04  8.5032E-04
       8.5307E-04  8.5593E-04  8.5885E-04  8.6177E-04  8.6462E-04
  40   1.0613E-03  1.0710E-03  1.0798E-03  1.0873E-03  1.0933E-03  1.0977E-03  1.1000E-03  1.1001E-03  1.0976E-03  1.0919E-03
       1.0828E-03  1.0699E-03  1.0531E-03  1.0323E-03  1.0078E-03  9.7985E-04  9.5021E-04  9.2243E-04  8.9963E-04  8.8212E-04
       8.6913E-04  8.5983E-04  8.5347E-04  8.4946E-04  8.4729E-04  8.4656E-04  8.4690E-04  8.4805E-04  8.4977E-04  8.5188E-04
       8.5424E-04  8.5677E-04  8.5939E-04  8.6205E-04  8.6469E-04



            MULT. ARRAY: HK_Par1_M2
 READING ON UNIT    8 WITH FORMAT: (FREE)              

            1           2           3           4           5           6           7           8           9          10
           11          12          13          14          15          16          17          18          19          20
           21          22          23          24          25          26          27          28          29          30
           31          32          33          34          35
 ........................................................................................................................
   1   5.7613E-05  5.7722E-05  5.7810E-05  5.7875E-05  5.7915E-05  5.7935E-05  5.7937E-05  5.7922E-05  5.7885E-05  5.7821E-05
       5.7727E-05  5.7597E-05  5.7431E-05  5.7227E-05  5.6989E-05  5.6722E-05  5.6437E-05  5.6145E-05  5.5861E-05  5.5596E-05
       5.5348E-05  5.5103E-05  5.4847E-05  5.4575E-05  5.4286E-05  5.3983E-05  5.3670E-05  5.3348E-05  5.3021E-05  5.2692E-05
       5.2365E-05  5.2046E-05  5.1740E-05  5.1449E-05  5.1173E-05
   2   5.7806E-05  5.7940E-05  5.8054E-05  5.8144E-05  5.8210E-05  5.8256E-05  5.8289E-05  5.8308E-05  5.8308E-05  5.8282E-05
       5.8224E-05  5.8128E-05  5.7991E-05  5.7811E-05  5.7587E-05  5.7323E-05  5.7028E-05  5.6715E-05  5.6404E-05  5.6113E-05
       5.5844E-05  5.5575E-05  5.5286E-05  5.4975E-05  5.4644E-05  5.4299E-05  5.3944E-05  5.3583E-05  5.3219E-05  5.2854E-05
       5.2494E-05  5.2146E-05  5.1815E-05  5.1503E-05  5.1211E-05
   3   5.7998E-05  5.8161E-05  5.8305E-05  5.8426E-05  5.8522E-05  5.8602E-05  5.8675E-05  5.8739E-05  5.8786E-05  5.8811E-05
       5.8803E-05  5.8758E-05  5.8668E-05  5.8529E-05  5.8337E-05  5.8092E-05  5.7796E-05  5.7464E-05  5.7116E-05  5.6785E-05
       5.6484E-05  5.6174E-05  5.5833E-05  5.5463E-05  5.5072E-05  5.4669E-05  5.4261E-05  5.3851E-05  5.3442E-05  5.3036E-05
       5.2637E-05  5.2255E-05  5.1896E-05  5.1562E-05  5.1251E-05
   4   5.8187E-05  5.8381E-05  5.8560E-05  5.8717E-05  5.8849E-05  5.8970E-05  5.9092E-05  5.9212E-05  5.9320E-05  5.9408E-05
       5.9468E-05  5.9491E-05  5.9469E-05  5.9393E-05  5.9255E-05  5.9049E-05  5.8772E-05  5.8429E-05  5.8041E-05  5.7652E-05
       5.7303E-05  5.6924E-05  5.6500E-05  5.6044E-05  5.5571E-05  5.5094E-05  5.4619E-05  5.4150E-05  5.3689E-05  5.3236E-05
       5.2793E-05  5.2373E-05  5.1983E-05  5.1624E-05  5.1292E-05
   5   5.8369E-05  5.8597E-05  5.8812E-05  5.9012E-05  5.9187E-05  5.9357E-05  5.9539E-05  5.9724E-05  5.9904E-05  6.0069E-05
       6.0212E-05  6.0321E-05  6.0388E-05  6.0401E-05  6.0345E-05  6.0208E-05  5.9976E-05  5.9646E-05  5.9231E-05  5.8764E-05
       5.8338E-05  5.7840E-05  5.7290E-05  5.6716E-05  5.6138E-05  5.5569E-05  5.5014E-05  5.4475E-05  5.3954E-05  5.3450E-05
       5.2960E-05  5.2498E-05  5.2075E-05  5.1688E-05  5.1333E-05
   6   5.8541E-05  5.8802E-05  5.9057E-05  5.9300E-05  5.9530E-05  5.9762E-05  6.0009E-05  6.0268E-05  6.0529E-05  6.0784E-05
       6.1023E-05  6.1238E-05  6.1415E-05  6.1541E-05  6.1597E-05  6.1560E-05  6.1409E-05  6.1127E-05  6.0717E-05  6.0206E-05
       5.9604E-05  5.8915E-05  5.8192E-05  5.7468E-05  5.6762E-05  5.6084E-05  5.5436E-05  5.4819E-05  5.4230E-05  5.3668E-05
       5.3132E-05  5.2629E-05  5.2170E-05  5.1752E-05  5.1371E-05
   7   5.8700E-05  5.8995E-05  5.9290E-05  5.9582E-05  5.9872E-05  6.0173E-05  6.0493E-05  6.0831E-05  6.1182E-05  6.1536E-05
       6.1885E-05  6.2219E-05  6.2524E-05  6.2785E-05  6.2978E-05  6.3073E-05  6.3032E-05  6.2823E-05  6.2434E-05  6.1862E-05
       6.1022E-05  6.0100E-05  5.9173E-05  5.8276E-05  5.7425E-05  5.6624E-05  5.5874E-05  5.5170E-05  5.4509E-05  5.3886E-05
       5.3301E-05  5.2757E-05  5.2261E-05  5.1812E-05  5.1405E-05
   8   5.8842E-05  5.9171E-05  5.9508E-05  5.9852E-05  6.0205E-05  6.0577E-05  6.0975E-05  6.1400E-05  6.1846E-05  6.2306E-05
       6.2773E-05  6.3235E-05  6.3681E-05  6.4091E-05  6.4438E-05  6.4681E-05  6.4765E-05  6.4623E-05  6.4207E-05  6.3490E-05
       6.2463E-05  6.1320E-05  6.0184E-05  5.9106E-05  5.8102E-05  5.7172E-05  5.6313E-05  5.5519E-05  5.4782E-05  5.4097E-05
       5.3461E-05  5.2876E-05  5.2344E-05  5.1864E-05  5.1431E-05
   9   5.8964E-05  5.9328E-05  5.9707E-05  6.0103E-05  6.0520E-05  6.0965E-05  6.1443E-05  6.1956E-05  6.2500E-05  6.3070E-05
       6.3656E-05  6.4250E-05  6.4838E-05  6.5398E-05  6.5900E-05  6.6293E-05  6.6497E-05  6.6402E-05  6.5917E-05  6.5037E-05
       6.3834E-05  6.2499E-05  6.1172E-05  5.9920E-05  5.8764E-05  5.7706E-05  5.6738E-05  5.5852E-05  5.5039E-05  5.4291E-05
       5.3605E-05  5.2979E-05  5.2413E-05  5.1903E-05  5.1444E-05
  10   5.9062E-05  5.9460E-05  5.9881E-05  6.0328E-05  6.0806E-05  6.1322E-05  6.1880E-05  6.2481E-05  6.3123E-05  6.3800E-05
       6.4503E-05  6.5223E-05  6.5943E-05  6.6638E-05  6.7273E-05  6.7790E-05  6.8096E-05  6.8035E-05  6.7459E-05  6.6425E-05
       6.5069E-05  6.3574E-05  6.2086E-05  6.0679E-05  5.9384E-05  5.8203E-05  5.7131E-05  5.6156E-05  5.5270E-05  5.4462E-05
       5.3727E-05  5.3062E-05  5.2462E-05  5.1925E-05  5.1442E-05
  11   5.9133E-05  5.9562E-05  6.0022E-05  6.0518E-05  6.1054E-05  6.1637E-05  6.2271E-05  6.2956E-05  6.3691E-05  6.4468E-05
       6.5279E-05  6.6111E-05  6.6941E-05  6.7739E-05  6.8459E-05  6.9041E-05  6.9402E-05  6.9373E-05  6.8708E-05  6.7564E-05
       6.6104E-05  6.4496E-05  6.2883E-05  6.1351E-05  5.9935E-05  5.8645E-05  5.7476E-05  5.6420E-05  5.5464E-05  5.4600E-05
       5.3820E-05  5.3117E-05  5.2488E-05  5.1925E-05  5.1422E-05
  12   5.9173E-05  5.9630E-05  6.0126E-05  6.0665E-05  6.1253E-05  6.1897E-05  6.2600E-05  6.3363E-05  6.4181E-05  6.5048E-05
       6.5952E-05  6.6874E-05  6.7786E-05  6.8640E-05  6.9374E-05  6.9921E-05  7.0228E-05  7.0224E-05  6.9519E-05  6.8373E-05
       6.6889E-05  6.5227E-05  6.3534E-05  6.1907E-05  6.0394E-05  5.9011E-05  5.7759E-05  5.6629E-05  5.5612E-05  5.4697E-05
       5.3876E-05  5.3141E-05  5.2485E-05  5.1900E-05  5.1379E-05
  13   5.9177E-05  5.9659E-05  6.0185E-05  6.0761E-05  6.1393E-05  6.2089E-05  6.2852E-05  6.3682E-05  6.4573E-05  6.5515E-05
       6.6492E-05  6.7482E-05  6.8441E-05  6.9304E-05  6.9979E-05  7.0375E-05  7.0452E-05  7.0286E-05  6.9808E-05  6.8818E-05
       6.7405E-05  6.5748E-05  6.4018E-05  6.2329E-05  6.0744E-05  5.9288E-05  5.7966E-05  5.6775E-05  5.5705E-05  5.4747E-05
       5.3891E-05  5.3128E-05  5.2450E-05  5.1847E-05  5.1312E-05
  14   5.9143E-05  5.9645E-05  6.0194E-05  6.0799E-05  6.1467E-05  6.2204E-05  6.3015E-05  6.3899E-05  6.4848E-05  6.5846E-05
       6.6878E-05  6.7911E-05  6.8891E-05  6.9729E-05  7.0300E-05  7.0485E-05  7.0277E-05  6.9915E-05  6.9714E-05  6.8962E-05
       6.7674E-05  6.6063E-05  6.4329E-05  6.2607E-05  6.0973E-05  5.9463E-05  5.8088E-05  5.6848E-05  5.5735E-05  5.4742E-05
       5.3858E-05  5.3074E-05  5.2379E-05  5.1764E-05  5.1219E-05
  15   5.9068E-05  5.9583E-05  6.0149E-05  6.0774E-05  6.1465E-05  6.2231E-05  6.3076E-05  6.4000E-05  6.4989E-05  6.6025E-05
       6.7091E-05  6.8149E-05  6.9133E-05  6.9936E-05  7.0413E-05  7.0433E-05  7.0063E-05  6.9727E-05  6.9564E-05  6.8938E-05
       6.7749E-05  6.6190E-05  6.4470E-05  6.2737E-05  6.1075E-05  5.9529E-05  5.8116E-05  5.6840E-05  5.5696E-05  5.4678E-05
       5.3774E-05  5.2976E-05  5.2270E-05  5.1648E-05  5.1098E-05
  16   5.8949E-05  5.9471E-05  6.0045E-05  6.0680E-05  6.1384E-05  6.2165E-05  6.3027E-05  6.3973E-05  6.4983E-05  6.6039E-05
       6.7122E-05  6.8190E-05  6.9171E-05  6.9953E-05  7.0386E-05  7.0344E-05  6.9932E-05  6.9664E-05  6.9462E-05  6.8832E-05
       6.7674E-05  6.6149E-05  6.4449E-05  6.2718E-05  6.1046E-05  5.9482E-05  5.8046E-05  5.6747E-05  5.5584E-05  5.4550E-05
       5.3636E-05  5.2831E-05  5.2122E-05  5.1498E-05  5.0947E-05
  17   5.8785E-05  5.9307E-05  5.9881E-05  6.0516E-05  6.1220E-05  6.2000E-05  6.2864E-05  6.3809E-05  6.4821E-05  6.5880E-05
       6.6964E-05  6.8030E-05  6.9007E-05  6.9789E-05  7.0240E-05  7.0250E-05  6.9888E-05  6.9676E-05  6.9368E-05  6.8646E-05
       6.7463E-05  6.5950E-05  6.4270E-05  6.2553E-05  6.0886E-05  5.9317E-05  5.7873E-05  5.6565E-05  5.5395E-05  5.4357E-05
       5.3443E-05  5.2638E-05  5.1933E-05  5.1313E-05  5.0768E-05
  18   5.8575E-05  5.9090E-05  5.9655E-05  6.0279E-05  6.0970E-05  6.1736E-05  6.2583E-05  6.3509E-05  6.4504E-05  6.5549E-05
       6.6619E-05  6.7672E-05  6.8641E-05  6.9432E-05  6.9934E-05  7.0074E-05  6.9905E-05  6.9641E-05  6.9172E-05  6.8329E-05
       6.7101E-05  6.5593E-05  6.3937E-05  6.2244E-05  6.0593E-05  5.9035E-05  5.7596E-05  5.6293E-05  5.5129E-05  5.4098E-05
       5.3192E-05  5.2398E-05  5.1703E-05  5.1094E-05  5.0560E-05
  19   5.8319E-05  5.8819E-05  5.9367E-05  5.9970E-05  6.0635E-05  6.1372E-05  6.2186E-05  6.3078E-05  6.4038E-05  6.5051E-05
       6.6092E-05  6.7119E-05  6.8072E-05  6.8865E-05  6.9404E-05  6.9636E-05  6.9614E-05  6.9310E-05  6.8737E-05  6.7816E-05
       6.6563E-05  6.5071E-05  6.3449E-05  6.1792E-05  6.0173E-05  5.8638E-05  5.7219E-05  5.5933E-05  5.4786E-05  5.3774E-05
       5.2887E-05  5.2112E-05  5.1435E-05  5.0843E-05  5.0324E-05
  20   5.8018E-05  5.8497E-05  5.9019E-05  5.9590E-05  6.0218E-05  6.0913E-05  6.1680E-05  6.2522E-05  6.3433E-05  6.4398E-05
       6.5393E-05  6.6382E-05  6.7307E-05  6.8088E-05  6.8636E-05  6.8890E-05  6.8869E-05  6.8600E-05  6.8013E-05  6.7074E-05
       6.5832E-05  6.4378E-05  6.2808E-05  6.1204E-05  5.9630E-05  5.8132E-05  5.6745E-05  5.5489E-05  5.4371E-05  5.3388E-05
       5.2530E-05  5.1782E-05  5.1130E-05  5.0560E-05  5.0062E-05
  21   5.7672E-05  5.8124E-05  5.8613E-05  5.9144E-05  5.9724E-05  6.0364E-05  6.1072E-05  6.1852E-05  6.2699E-05  6.3601E-05
       6.4537E-05  6.5473E-05  6.6357E-05  6.7114E-05  6.7654E-05  6.7899E-05  6.7849E-05  6.7600E-05  6.7029E-05  6.6110E-05
       6.4909E-05  6.3517E-05  6.2018E-05  6.0484E-05  5.8971E-05  5.7524E-05  5.6180E-05  5.4965E-05  5.3888E-05  5.2945E-05
       5.2124E-05  5.1411E-05  5.0791E-05  5.0250E-05  4.9776E-05
  22   5.7286E-05  5.7704E-05  5.8153E-05  5.8635E-05  5.9157E-05  5.9733E-05  6.0371E-05  6.1078E-05  6.1850E-05  6.2677E-05
       6.3541E-05  6.4411E-05  6.5240E-05  6.5962E-05  6.6491E-05  6.6737E-05  6.6664E-05  6.6410E-05  6.5839E-05  6.4949E-05
       6.3807E-05  6.2496E-05  6.1087E-05  5.9640E-05  5.8204E-05  5.6821E-05  5.5532E-05  5.4368E-05  5.3342E-05  5.2449E-05
       5.1675E-05  5.1005E-05  5.0423E-05  4.9915E-05  4.9470E-05
  23   5.6860E-05  5.7240E-05  5.7643E-05  5.8069E-05  5.8527E-05  5.9029E-05  5.9589E-05  6.0214E-05  6.0901E-05  6.1643E-05
       6.2423E-05  6.3214E-05  6.3975E-05  6.4649E-05  6.5162E-05  6.5434E-05  6.5399E-05  6.5077E-05  6.4481E-05  6.3620E-05
       6.2549E-05  6.1331E-05  6.0027E-05  5.8683E-05  5.7338E-05  5.6030E-05  5.4806E-05  5.3704E-05  5.2741E-05  5.1909E-05
       5.1191E-05  5.0569E-05  5.0030E-05  4.9559E-05  4.9146E-05
  24   5.6400E-05  5.6736E-05  5.7087E-05  5.7454E-05  5.7840E-05  5.8262E-05  5.8738E-05  5.9275E-05  5.9871E-05  6.0519E-05
       6.1205E-05  6.1907E-05  6.2587E-05  6.3196E-05  6.3670E-05  6.3940E-05  6.3938E-05  6.3578E-05  6.2972E-05  6.2153E-05
       6.1161E-05  6.0046E-05  5.8855E-05  5.7623E-05  5.6382E-05  5.5162E-05  5.4011E-05  5.2984E-05  5.2096E-05  5.1333E-05
       5.0677E-05  5.0111E-05  4.9618E-05  4.9188E-05  4.8809E-05
  25   5.5909E-05  5.6197E-05  5.6492E-05  5.6795E-05  5.7107E-05  5.7445E-05  5.7834E-05  5.8278E-05  5.8777E-05  5.9326E-05
       5.9912E-05  6.0515E-05  6.1103E-05  6.1631E-05  6.2044E-05  6.2274E-05  6.2250E-05  6.1916E-05  6.1343E-05  6.0582E-05
       5.9677E-05  5.8668E-05  5.7592E-05  5.6478E-05  5.5347E-05  5.4224E-05  5.3157E-05  5.2218E-05  5.1417E-05  5.0733E-05
       5.0145E-05  4.9637E-05  4.9194E-05  4.8805E-05  4.8462E-05
  26   5.5392E-05  5.5629E-05  5.5864E-05  5.6097E-05  5.6334E-05  5.6591E-05  5.6890E-05  5.7238E-05  5.7638E-05  5.8085E-05
       5.8568E-05  5.9069E-05  5.9558E-05  5.9996E-05  6.0333E-05  6.0508E-05  6.0460E-05  6.0158E-05  5.9639E-05  5.8951E-05
       5.8137E-05  5.7231E-05  5.6266E-05  5.5266E-05  5.4248E-05  5.3229E-05  5.2257E-05  5.1424E-05  5.0720E-05  5.0120E-05
       4.9603E-05  4.9154E-05  4.8762E-05  4.8416E-05  4.8108E-05
  27   5.4855E-05  5.5039E-05  5.5211E-05  5.5374E-05  5.5535E-05  5.5710E-05  5.5918E-05  5.6172E-05  5.6472E-05  5.6818E-05
       5.7198E-05  5.7596E-05  5.7986E-05  5.8333E-05  5.8592E-05  5.8712E-05  5.8647E-05  5.8374E-05  5.7914E-05  5.7304E-05
       5.6580E-05  5.5774E-05  5.4914E-05  5.4019E-05  5.3106E-05  5.2183E-05  5.1337E-05  5.0627E-05  5.0024E-05  4.9507E-05
       4.9060E-05  4.8671E-05  4.8328E-05  4.8024E-05  4.7753E-05
  28   5.4306E-05  5.4435E-05  5.4545E-05  5.4637E-05  5.4721E-05  5.4813E-05  5.4934E-05  5.5094E-05  5.5299E-05  5.5545E-05
       5.5825E-05  5.6124E-05  5.6418E-05  5.6679E-05  5.6867E-05  5.6940E-05  5.6863E-05  5.6618E-05  5.6216E-05  5.5682E-05
       5.5047E-05  5.4336E-05  5.3574E-05  5.2779E-05  5.1964E-05  5.1157E-05  5.0453E-05  4.9853E-05  4.9344E-05  4.8906E-05
       4.8526E-05  4.8192E-05  4.7898E-05  4.7634E-05  4.7398E-05
  29   5.3749E-05  5.3825E-05  5.3874E-05  5.3896E-05  5.3903E-05  5.3915E-05  5.3949E-05  5.4021E-05  5.4134E-05  5.4287E-05
       5.4472E-05  5.4677E-05  5.4883E-05  5.5065E-05  5.5191E-05  5.5228E-05  5.5145E-05  5.4928E-05  5.4580E-05  5.4120E-05
       5.3569E-05  5.2951E-05  5.2286E-05  5.1592E-05  5.0888E-05  5.0211E-05  4.9620E-05  4.9119E-05  4.8692E-05  4.8325E-05
       4.8006E-05  4.7725E-05  4.7475E-05  4.7250E-05  4.7046E-05
  30   5.3191E-05  5.3217E-05  5.3207E-05  5.3161E-05  5.3093E-05  5.3025E-05  5.2978E-05  5.2966E-05  5.2994E-05  5.3060E-05
       5.3158E-05  5.3277E-05  5.3403E-05  5.3516E-05  5.3590E-05  5.3598E-05  5.3515E-05  5.3327E-05  5.3032E-05  5.2641E-05
       5.2172E-05  5.1644E-05  5.1075E-05  5.0484E-05  4.9892E-05  4.9334E-05  4.8844E-05  4.8427E-05  4.8073E-05  4.7769E-05
       4.7504E-05  4.7271E-05  4.7063E-05  4.6874E-05  4.6701E-05
  31   5.2636E-05  5.2616E-05  5.2551E-05  5.2441E-05  5.2301E-05  5.2156E-05  5.2032E-05  5.1943E-05  5.1894E-05  5.1880E-05
       5.1899E-05  5.1941E-05  5.1996E-05  5.2049E-05  5.2080E-05  5.2068E-05  5.1990E-05  5.1831E-05  5.1586E-05  5.1262E-05
       5.0871E-05  5.0429E-05  4.9953E-05  4.9462E-05  4.8976E-05  4.8521E-05  4.8121E-05  4.7779E-05  4.7488E-05  4.7240E-05
       4.7025E-05  4.6835E-05  4.6665E-05  4.6509E-05  4.6365E-05
  32   5.2089E-05  5.2027E-05  5.1912E-05  5.1743E-05  5.1534E-05  5.1317E-05  5.1123E-05  5.0966E-05  5.0847E-05  5.0763E-05
       5.0710E-05  5.0683E-05  5.0675E-05  5.0676E-05  5.0672E-05  5.0646E-05  5.0577E-05  5.0449E-05  5.0253E-05  4.9991E-05
       4.9673E-05  4.9313E-05  4.8924E-05  4.8526E-05  4.8134E-05  4.7770E-05  4.7448E-05  4.7172E-05  4.6938E-05  4.6740E-05
       4.6568E-05  4.6418E-05  4.6282E-05  4.6156E-05  4.6038E-05
  33   5.1551E-05  5.1452E-05  5.1294E-05  5.1073E-05  5.0800E-05  5.0517E-05  5.0261E-05  5.0045E-05  4.9865E-05  4.9718E-05
       4.9602E-05  4.9514E-05  4.9450E-05  4.9406E-05  4.9374E-05  4.9339E-05  4.9283E-05  4.9186E-05  4.9036E-05  4.8832E-05
       4.8582E-05  4.8296E-05  4.7988E-05  4.7672E-05  4.7364E-05  4.7078E-05  4.6825E-05  4.6607E-05  4.6423E-05  4.6268E-05
       4.6136E-05  4.6020E-05  4.5915E-05  4.5816E-05  4.5722E-05
  34   5.1024E-05  5.0891E-05  5.0697E-05  5.0434E-05  5.0105E-05  4.9763E-05  4.9457E-05  4.9190E-05  4.8958E-05  4.8757E-05
       4.8586E-05  4.8444E-05  4.8331E-05  4.8247E-05  4.8190E-05  4.8150E-05  4.8109E-05  4.8044E-05  4.7937E-05  4.7786E-05
       4.7597E-05  4.7378E-05  4.7141E-05  4.6898E-05  4.6662E-05  4.6443E-05  4.6248E-05  4.6082E-05  4.5942E-05  4.5825E-05
       4.5728E-05  4.5643E-05  4.5565E-05  4.5491E-05  4.5418E-05
  35   5.0508E-05  5.0345E-05  5.0120E-05  4.9825E-05  4.9454E-05  4.9066E-05  4.8721E-05  4.8411E-05  4.8134E-05  4.7886E-05
       4.7667E-05  4.7479E-05  4.7324E-05  4.7205E-05  4.7125E-05  4.7081E-05  4.7057E-05  4.7022E-05  4.6956E-05  4.6852E-05
       4.6716E-05  4.6556E-05  4.6380E-05  4.6201E-05  4.6025E-05  4.5863E-05  4.5719E-05  4.5596E-05  4.5494E-05  4.5412E-05
       4.5344E-05  4.5287E-05  4.5233E-05  4.5180E-05  4.5126E-05
  36   5.0006E-05  4.9814E-05  4.9560E-05  4.9236E-05  4.8846E-05  4.8437E-05  4.8057E-05  4.7712E-05  4.7397E-05  4.7110E-05
       4.6852E-05  4.6625E-05  4.6434E-05  4.6284E-05  4.6182E-05  4.6133E-05  4.6126E-05  4.6121E-05  4.6090E-05  4.6026E-05
       4.5936E-05  4.5825E-05  4.5702E-05  4.5575E-05  4.5451E-05  4.5336E-05  4.5235E-05  4.5149E-05  4.5080E-05  4.5026E-05
       4.4986E-05  4.4952E-05  4.4919E-05  4.4884E-05  4.4847E-05
  37   4.9520E-05  4.9302E-05  4.9024E-05  4.8681E-05  4.8283E-05  4.7865E-05  4.7464E-05  4.7092E-05  4.6748E-05  4.6431E-05
       4.6143E-05  4.5886E-05  4.5666E-05  4.5491E-05  4.5369E-05  4.5310E-05  4.5317E-05  4.5339E-05  4.5336E-05  4.5306E-05
       4.5253E-05  4.5183E-05  4.5103E-05  4.5019E-05  4.4937E-05  4.4861E-05  4.4795E-05  4.4741E-05  4.4700E-05  4.4670E-05
       4.4651E-05  4.4637E-05  4.4622E-05  4.4604E-05  4.4581E-05
  38   4.9053E-05  4.8814E-05  4.8518E-05  4.8165E-05  4.7766E-05  4.7347E-05  4.6937E-05  4.6548E-05  4.6185E-05  4.5848E-05
       4.5540E-05  4.5262E-05  4.5023E-05  4.4829E-05  4.4691E-05  4.4620E-05  4.4629E-05  4.4673E-05  4.4691E-05  4.4686E-05
       4.4662E-05  4.4624E-05  4.4579E-05  4.4529E-05  4.4481E-05  4.4436E-05  4.4399E-05  4.4371E-05  4.4352E-05  4.4342E-05
       4.4341E-05  4.4343E-05  4.4342E-05  4.4337E-05  4.4327E-05
  39   4.8609E-05  4.8354E-05  4.8047E-05  4.7690E-05  4.7295E-05  4.6882E-05  4.6471E-05  4.6077E-05  4.5705E-05  4.5358E-05
       4.5039E-05  4.4751E-05  4.4501E-05  4.4298E-05  4.4153E-05  4.4077E-05  4.4076E-05  4.4118E-05  4.4148E-05  4.4160E-05
       4.4158E-05  4.4144E-05  4.4124E-05  4.4101E-05  4.4078E-05  4.4059E-05  4.4044E-05  4.4036E-05  4.4035E-05  4.4042E-05
       4.4054E-05  4.4067E-05  4.4079E-05  4.4085E-05  4.4086E-05
  40   4.8190E-05  4.7922E-05  4.7610E-05  4.7256E-05  4.6869E-05  4.6466E-05  4.6064E-05  4.5673E-05  4.5301E-05  4.4953E-05
       4.4632E-05  4.4343E-05  4.4092E-05  4.3889E-05  4.3742E-05  4.3661E-05  4.3647E-05  4.3674E-05  4.3703E-05  4.3723E-05
       4.3734E-05  4.3736E-05  4.3734E-05  4.3730E-05  4.3726E-05  4.3725E-05  4.3728E-05  4.3735E-05  4.3748E-05  4.3766E-05
       4.3788E-05  4.3811E-05  4.3832E-05  4.3848E-05  4.3858E-05



            MULT. ARRAY: HK_Par1_M3
 READING ON UNIT    8 WITH FORMAT: (FREE)              

            1           2           3           4           5           6           7           8           9          10
           11          12          13          14          15          16          17          18          19          20
           21          22          23          24          25          26          27          28          29          30
           31          32          33          34          35
 ........................................................................................................................
   1   9.0569E-05  9.0543E-05  9.0474E-05  9.0375E-05  9.0275E-05  9.0216E-05  9.0242E-05  9.0389E-05  9.0681E-05  9.1135E-05
       9.1756E-05  9.2544E-05  9.3484E-05  9.4552E-05  9.5710E-05  9.6907E-05  9.8087E-05  9.9185E-05  1.0015E-04  1.0092E-04
       1.0149E-04  1.0185E-04  1.0201E-04  1.0201E-04  1.0188E-04  1.0165E-04  1.0135E-04  1.0101E-04  1.0065E-04  1.0028E-04
       9.9928E-05  9.9597E-05  9.9302E-05  9.9052E-05  9.8846E-05
   2   9.0753E-05  9.0725E-05  9.0642E-05  9.0517E-05  9.0381E-05  9.0286E-05  9.0287E-05  9.0425E-05  9.0726E-05  9.1208E-05
       9.1881E-05  9.2743E-05  9.3779E-05  9.4963E-05  9.6249E-05  9.7581E-05  9.8889E-05  1.0010E-04  1.0114E-04  1.0196E-04
       1.0255E-04  1.0288E-04  1.0300E-04  1.0293E-04  1.0272E-04  1.0241E-04  1.0204E-04  1.0162E-04  1.0119E-04  1.0076E-04
       1.0034E-04  9.9959E-05  9.9622E-05  9.9339E-05  9.9108E-05
   3   9.0961E-05  9.0936E-05  9.0847E-05  9.0702E-05  9.0534E-05  9.0407E-05  9.0389E-05  9.0524E-05  9.0840E-05  9.1358E-05
       9.2090E-05  9.3036E-05  9.4180E-05  9.5492E-05  9.6922E-05  9.8401E-05  9.9848E-05  1.0117E-04  1.0229E-04  1.0316E-04
       1.0374E-04  1.0405E-04  1.0410E-04  1.0394E-04  1.0365E-04  1.0325E-04  1.0279E-04  1.0229E-04  1.0179E-04  1.0128E-04
       1.0080E-04  1.0036E-04  9.9977E-05  9.9655E-05  9.9394E-05
   4   9.1192E-05  9.1175E-05  9.1086E-05  9.0930E-05  9.0735E-05  9.0581E-05  9.0552E-05  9.0690E-05  9.1026E-05  9.1585E-05
       9.2383E-05  9.3422E-05  9.4686E-05  9.6142E-05  9.7731E-05  9.9375E-05  1.0098E-04  1.0243E-04  1.0364E-04  1.0453E-04
       1.0510E-04  1.0535E-04  1.0531E-04  1.0506E-04  1.0466E-04  1.0416E-04  1.0361E-04  1.0302E-04  1.0243E-04  1.0186E-04
       1.0131E-04  1.0080E-04  1.0037E-04  1.0000E-04  9.9704E-05
   5   9.1443E-05  9.1438E-05  9.1353E-05  9.1195E-05  9.0982E-05  9.0810E-05  9.0777E-05  9.0920E-05  9.1278E-05  9.1881E-05
       9.2750E-05  9.3891E-05  9.5287E-05  9.6901E-05  9.8668E-05  1.0050E-04  1.0228E-04  1.0388E-04  1.0519E-04  1.0610E-04
       1.0665E-04  1.0680E-04  1.0665E-04  1.0627E-04  1.0576E-04  1.0515E-04  1.0449E-04  1.0381E-04  1.0313E-04  1.0248E-04
       1.0185E-04  1.0128E-04  1.0079E-04  1.0038E-04  1.0004E-04
   6   9.1710E-05  9.1722E-05  9.1644E-05  9.1484E-05  9.1273E-05  9.1101E-05  9.1060E-05  9.1206E-05  9.1584E-05  9.2231E-05
       9.3175E-05  9.4423E-05  9.5962E-05  9.7749E-05  9.9712E-05  1.0175E-04  1.0373E-04  1.0551E-04  1.0695E-04  1.0792E-04
       1.0836E-04  1.0837E-04  1.0807E-04  1.0756E-04  1.0692E-04  1.0619E-04  1.0542E-04  1.0465E-04  1.0388E-04  1.0314E-04
       1.0244E-04  1.0180E-04  1.0124E-04  1.0077E-04  1.0039E-04
   7   9.1993E-05  9.2023E-05  9.1957E-05  9.1803E-05  9.1602E-05  9.1434E-05  9.1388E-05  9.1533E-05  9.1926E-05  9.2615E-05
       9.3633E-05  9.4994E-05  9.6683E-05  9.8654E-05  1.0083E-04  1.0308E-04  1.0528E-04  1.0724E-04  1.0881E-04  1.0983E-04
       1.1015E-04  1.1001E-04  1.0956E-04  1.0890E-04  1.0812E-04  1.0728E-04  1.0640E-04  1.0552E-04  1.0466E-04  1.0383E-04
       1.0305E-04  1.0234E-04  1.0172E-04  1.0120E-04  1.0076E-04
   8   9.2286E-05  9.2341E-05  9.2291E-05  9.2150E-05  9.1960E-05  9.1795E-05  9.1742E-05  9.1881E-05  9.2283E-05  9.3008E-05
       9.4099E-05  9.5572E-05  9.7415E-05  9.9577E-05  1.0197E-04  1.0445E-04  1.0686E-04  1.0899E-04  1.1064E-04  1.1165E-04
       1.1191E-04  1.1165E-04  1.1106E-04  1.1026E-04  1.0935E-04  1.0838E-04  1.0740E-04  1.0642E-04  1.0546E-04  1.0454E-04
       1.0369E-04  1.0291E-04  1.0222E-04  1.0163E-04  1.0114E-04
   9   9.2587E-05  9.2670E-05  9.2642E-05  9.2517E-05  9.2336E-05  9.2169E-05  9.2104E-05  9.2229E-05  9.2630E-05  9.3383E-05
       9.4541E-05  9.6125E-05  9.8120E-05  1.0047E-04  1.0308E-04  1.0578E-04  1.0839E-04  1.1066E-04  1.1237E-04  1.1335E-04
       1.1357E-04  1.1322E-04  1.1251E-04  1.1159E-04  1.1057E-04  1.0949E-04  1.0841E-04  1.0733E-04  1.0628E-04  1.0528E-04
       1.0434E-04  1.0348E-04  1.0272E-04  1.0207E-04  1.0152E-04
  10   9.2889E-05  9.3005E-05  9.3002E-05  9.2892E-05  9.2716E-05  9.2542E-05  9.2455E-05  9.2554E-05  9.2943E-05  9.3714E-05
       9.4931E-05  9.6619E-05  9.8761E-05  1.0130E-04  1.0411E-04  1.0702E-04  1.0981E-04  1.1220E-04  1.1395E-04  1.1490E-04
       1.1509E-04  1.1467E-04  1.1388E-04  1.1287E-04  1.1175E-04  1.1058E-04  1.0941E-04  1.0825E-04  1.0711E-04  1.0602E-04
       1.0499E-04  1.0406E-04  1.0323E-04  1.0251E-04  1.0190E-04
  11   9.3185E-05  9.3336E-05  9.3358E-05  9.3262E-05  9.3087E-05  9.2897E-05  9.2777E-05  9.2836E-05  9.3197E-05  9.3974E-05
       9.5242E-05  9.7027E-05  9.9306E-05  1.0201E-04  1.0501E-04  1.0811E-04  1.1106E-04  1.1356E-04  1.1533E-04  1.1628E-04
       1.1644E-04  1.1599E-04  1.1514E-04  1.1406E-04  1.1287E-04  1.1164E-04  1.1039E-04  1.0915E-04  1.0793E-04  1.0675E-04
       1.0565E-04  1.0463E-04  1.0373E-04  1.0295E-04  1.0228E-04
  12   9.3463E-05  9.3650E-05  9.3696E-05  9.3610E-05  9.3430E-05  9.3217E-05  9.3054E-05  9.3056E-05  9.3373E-05  9.4146E-05
       9.5458E-05  9.7332E-05  9.9736E-05  1.0259E-04  1.0575E-04  1.0901E-04  1.1209E-04  1.1469E-04  1.1651E-04  1.1747E-04
       1.1763E-04  1.1716E-04  1.1627E-04  1.1515E-04  1.1392E-04  1.1264E-04  1.1134E-04  1.1003E-04  1.0873E-04  1.0747E-04
       1.0628E-04  1.0519E-04  1.0421E-04  1.0336E-04  1.0263E-04
  13   9.3714E-05  9.3934E-05  9.3999E-05  9.3918E-05  9.3727E-05  9.3484E-05  9.3268E-05  9.3197E-05  9.3455E-05  9.4218E-05
       9.5574E-05  9.7530E-05  1.0005E-04  1.0303E-04  1.0633E-04  1.0971E-04  1.1288E-04  1.1554E-04  1.1746E-04  1.1848E-04
       1.1866E-04  1.1819E-04  1.1729E-04  1.1614E-04  1.1489E-04  1.1358E-04  1.1225E-04  1.1088E-04  1.0950E-04  1.0816E-04
       1.0688E-04  1.0571E-04  1.0467E-04  1.0375E-04  1.0297E-04
  14   9.3926E-05  9.4174E-05  9.4251E-05  9.4163E-05  9.3953E-05  9.3677E-05  9.3404E-05  9.3248E-05  9.3436E-05  9.4195E-05
       9.5599E-05  9.7636E-05  1.0025E-04  1.0334E-04  1.0675E-04  1.1024E-04  1.1350E-04  1.1622E-04  1.1824E-04  1.1934E-04
       1.1956E-04  1.1910E-04  1.1819E-04  1.1703E-04  1.1577E-04  1.1446E-04  1.1310E-04  1.1168E-04  1.1023E-04  1.0880E-04
       1.0745E-04  1.0620E-04  1.0509E-04  1.0411E-04  1.0327E-04
  15   9.4088E-05  9.4357E-05  9.4433E-05  9.4326E-05  9.4082E-05  9.3767E-05  9.3444E-05  9.3201E-05  9.3322E-05  9.4097E-05
       9.5563E-05  9.7681E-05  1.0038E-04  1.0356E-04  1.0707E-04  1.1066E-04  1.1404E-04  1.1688E-04  1.1897E-04  1.2012E-04
       1.2038E-04  1.1993E-04  1.1902E-04  1.1785E-04  1.1657E-04  1.1527E-04  1.1390E-04  1.1243E-04  1.1090E-04  1.0939E-04
       1.0795E-04  1.0664E-04  1.0546E-04  1.0443E-04  1.0354E-04
  16   9.4189E-05  9.4471E-05  9.4532E-05  9.4385E-05  9.4088E-05  9.3721E-05  9.3360E-05  9.3051E-05  9.3142E-05  9.3968E-05
       9.5506E-05  9.7706E-05  1.0049E-04  1.0375E-04  1.0732E-04  1.1102E-04  1.1455E-04  1.1752E-04  1.1967E-04  1.2087E-04
       1.2116E-04  1.2073E-04  1.1981E-04  1.1861E-04  1.1732E-04  1.1602E-04  1.1464E-04  1.1311E-04  1.1150E-04  1.0990E-04
       1.0839E-04  1.0701E-04  1.0577E-04  1.0469E-04  1.0376E-04
  17   9.4224E-05  9.4508E-05  9.4540E-05  9.4332E-05  9.3956E-05  9.3512E-05  9.3093E-05  9.2811E-05  9.2972E-05  9.3849E-05
       9.5460E-05  9.7747E-05  1.0062E-04  1.0394E-04  1.0757E-04  1.1134E-04  1.1502E-04  1.1815E-04  1.2038E-04  1.2162E-04
       1.2195E-04  1.2154E-04  1.2061E-04  1.1938E-04  1.1803E-04  1.1672E-04  1.1531E-04  1.1369E-04  1.1200E-04  1.1033E-04
       1.0876E-04  1.0731E-04  1.0602E-04  1.0490E-04  1.0394E-04
  18   9.4184E-05  9.4464E-05  9.4452E-05  9.4164E-05  9.3689E-05  9.3156E-05  9.2702E-05  9.2487E-05  9.2759E-05  9.3727E-05
       9.5434E-05  9.7826E-05  1.0080E-04  1.0421E-04  1.0790E-04  1.1168E-04  1.1545E-04  1.1875E-04  1.2109E-04  1.2240E-04
       1.2276E-04  1.2237E-04  1.2144E-04  1.2018E-04  1.1878E-04  1.1736E-04  1.1585E-04  1.1416E-04  1.1240E-04  1.1067E-04
       1.0903E-04  1.0754E-04  1.0621E-04  1.0505E-04  1.0406E-04
  19   9.4064E-05  9.4336E-05  9.4272E-05  9.3890E-05  9.3302E-05  9.2679E-05  9.2206E-05  9.2072E-05  9.2477E-05  9.3578E-05
       9.5415E-05  9.7942E-05  1.0105E-04  1.0458E-04  1.0835E-04  1.1216E-04  1.1590E-04  1.1930E-04  1.2178E-04  1.2319E-04
       1.2360E-04  1.2322E-04  1.2228E-04  1.2098E-04  1.1950E-04  1.1795E-04  1.1630E-04  1.1452E-04  1.1269E-04  1.1090E-04
       1.0922E-04  1.0769E-04  1.0632E-04  1.0514E-04  1.0413E-04
  20   9.3858E-05  9.4122E-05  9.4004E-05  9.3521E-05  9.2809E-05  9.2093E-05  9.1611E-05  9.1564E-05  9.2117E-05  9.3379E-05
       9.5381E-05  9.8075E-05  1.0135E-04  1.0504E-04  1.0892E-04  1.1278E-04  1.1650E-04  1.1992E-04  1.2250E-04  1.2398E-04
       1.2443E-04  1.2405E-04  1.2308E-04  1.2172E-04  1.2015E-04  1.1845E-04  1.1666E-04  1.1478E-04  1.1288E-04  1.1104E-04
       1.0931E-04  1.0775E-04  1.0637E-04  1.0517E-04  1.0415E-04
  21   9.3558E-05  9.3818E-05  9.3651E-05  9.3065E-05  9.2221E-05  9.1408E-05  9.0923E-05  9.0971E-05  9.1680E-05  9.3121E-05
       9.5307E-05  9.8191E-05  1.0166E-04  1.0554E-04  1.0958E-04  1.1352E-04  1.1721E-04  1.2064E-04  1.2324E-04  1.2473E-04
       1.2519E-04  1.2480E-04  1.2379E-04  1.2236E-04  1.2068E-04  1.1885E-04  1.1691E-04  1.1493E-04  1.1296E-04  1.1108E-04
       1.0932E-04  1.0774E-04  1.0634E-04  1.0514E-04  1.0411E-04
  22   9.3149E-05  9.3411E-05  9.3209E-05  9.2531E-05  9.1549E-05  9.0635E-05  9.0154E-05  9.0305E-05  9.1173E-05  9.2796E-05
       9.5171E-05  9.8248E-05  1.0192E-04  1.0600E-04  1.1023E-04  1.1432E-04  1.1801E-04  1.2141E-04  1.2395E-04  1.2539E-04
       1.2582E-04  1.2539E-04  1.2434E-04  1.2285E-04  1.2106E-04  1.1910E-04  1.1705E-04  1.1497E-04  1.1294E-04  1.1102E-04
       1.0925E-04  1.0765E-04  1.0625E-04  1.0505E-04  1.0403E-04
  23   9.2615E-05  9.2881E-05  9.2665E-05  9.1921E-05  9.0802E-05  8.9787E-05  8.9330E-05  8.9592E-05  9.0613E-05  9.2404E-05
       9.4953E-05  9.8207E-05  1.0206E-04  1.0633E-04  1.1077E-04  1.1507E-04  1.1891E-04  1.2215E-04  1.2453E-04  1.2588E-04
       1.2624E-04  1.2578E-04  1.2469E-04  1.2313E-04  1.2126E-04  1.1920E-04  1.1705E-04  1.1490E-04  1.1282E-04  1.1087E-04
       1.0909E-04  1.0749E-04  1.0610E-04  1.0490E-04  1.0389E-04
  24   9.1934E-05  9.2198E-05  9.1988E-05  9.1226E-05  8.9992E-05  8.8894E-05  8.8487E-05  8.8861E-05  9.0015E-05  9.1945E-05
       9.4634E-05  9.8028E-05  1.0202E-04  1.0644E-04  1.1104E-04  1.1550E-04  1.1950E-04  1.2261E-04  1.2484E-04  1.2609E-04
       1.2640E-04  1.2591E-04  1.2478E-04  1.2319E-04  1.2126E-04  1.1913E-04  1.1691E-04  1.1470E-04  1.1260E-04  1.1064E-04
       1.0885E-04  1.0726E-04  1.0588E-04  1.0470E-04  1.0371E-04
  25   9.1095E-05  9.1331E-05  9.1124E-05  9.0403E-05  8.9136E-05  8.8003E-05  8.7679E-05  8.8142E-05  8.9391E-05  9.1417E-05
       9.4200E-05  9.7686E-05  1.0177E-04  1.0628E-04  1.1096E-04  1.1549E-04  1.1949E-04  1.2261E-04  1.2477E-04  1.2597E-04
       1.2625E-04  1.2574E-04  1.2460E-04  1.2299E-04  1.2104E-04  1.1887E-04  1.1660E-04  1.1438E-04  1.1227E-04  1.1031E-04
       1.0855E-04  1.0698E-04  1.0562E-04  1.0446E-04  1.0349E-04
  26   9.0102E-05  9.0273E-05  9.0034E-05  8.9320E-05  8.8206E-05  8.7218E-05  8.6933E-05  8.7441E-05  8.8737E-05  9.0811E-05
       9.3639E-05  9.7164E-05  1.0128E-04  1.0581E-04  1.1050E-04  1.1502E-04  1.1901E-04  1.2214E-04  1.2430E-04  1.2548E-04
       1.2576E-04  1.2526E-04  1.2414E-04  1.2253E-04  1.2059E-04  1.1841E-04  1.1614E-04  1.1393E-04  1.1184E-04  1.0991E-04
       1.0817E-04  1.0663E-04  1.0530E-04  1.0418E-04  1.0324E-04
  27   8.8980E-05  8.9062E-05  8.8780E-05  8.8107E-05  8.7176E-05  8.6391E-05  8.6186E-05  8.6725E-05  8.8036E-05  9.0116E-05
       9.2941E-05  9.6456E-05  1.0055E-04  1.0505E-04  1.0970E-04  1.1418E-04  1.1813E-04  1.2127E-04  1.2345E-04  1.2466E-04
       1.2496E-04  1.2449E-04  1.2339E-04  1.2182E-04  1.1991E-04  1.1776E-04  1.1553E-04  1.1337E-04  1.1133E-04  1.0944E-04
       1.0774E-04  1.0624E-04  1.0495E-04  1.0385E-04  1.0295E-04
  28   8.7772E-05  8.7757E-05  8.7439E-05  8.6828E-05  8.6073E-05  8.5482E-05  8.5384E-05  8.5958E-05  8.7266E-05  8.9320E-05
       9.2105E-05  9.5565E-05  9.9596E-05  1.0402E-04  1.0860E-04  1.1302E-04  1.1693E-04  1.2007E-04  1.2227E-04  1.2352E-04
       1.2386E-04  1.2344E-04  1.2240E-04  1.2088E-04  1.1902E-04  1.1694E-04  1.1481E-04  1.1272E-04  1.1074E-04  1.0891E-04
       1.0726E-04  1.0581E-04  1.0456E-04  1.0350E-04  1.0263E-04
  29   8.6523E-05  8.6416E-05  8.6072E-05  8.5528E-05  8.4924E-05  8.4500E-05  8.4509E-05  8.5120E-05  8.6414E-05  8.8421E-05
       9.1134E-05  9.4506E-05  9.8437E-05  1.0276E-04  1.0725E-04  1.1159E-04  1.1546E-04  1.1859E-04  1.2082E-04  1.2211E-04
       1.2251E-04  1.2216E-04  1.2119E-04  1.1975E-04  1.1798E-04  1.1601E-04  1.1398E-04  1.1198E-04  1.1009E-04  1.0833E-04
       1.0674E-04  1.0534E-04  1.0413E-04  1.0312E-04  1.0229E-04
  30   8.5274E-05  8.5084E-05  8.4722E-05  8.4238E-05  8.3757E-05  8.3468E-05  8.3570E-05  8.4211E-05  8.5483E-05  8.7426E-05
       9.0044E-05  9.3300E-05  9.7105E-05  1.0131E-04  1.0568E-04  1.0994E-04  1.1377E-04  1.1690E-04  1.1915E-04  1.2049E-04
       1.2096E-04  1.2068E-04  1.1980E-04  1.1847E-04  1.1682E-04  1.1498E-04  1.1307E-04  1.1118E-04  1.0938E-04  1.0770E-04
       1.0618E-04  1.0483E-04  1.0368E-04  1.0271E-04  1.0192E-04
  31   8.4060E-05  8.3797E-05  8.3421E-05  8.2986E-05  8.2601E-05  8.2417E-05  8.2590E-05  8.3251E-05  8.4489E-05  8.6354E-05
       8.8858E-05  9.1977E-05  9.5635E-05  9.9696E-05  1.0395E-04  1.0813E-04  1.1191E-04  1.1503E-04  1.1731E-04  1.1870E-04
       1.1924E-04  1.1905E-04  1.1828E-04  1.1707E-04  1.1556E-04  1.1386E-04  1.1208E-04  1.1032E-04  1.0862E-04  1.0703E-04
       1.0558E-04  1.0430E-04  1.0321E-04  1.0229E-04  1.0154E-04
  32   8.2905E-05  8.2581E-05  8.2193E-05  8.1796E-05  8.1485E-05  8.1378E-05  8.1601E-05  8.2267E-05  8.3460E-05  8.5234E-05
       8.7611E-05  9.0575E-05  9.4066E-05  9.7969E-05  1.0209E-04  1.0618E-04  1.0993E-04  1.1305E-04  1.1535E-04  1.1678E-04
       1.1739E-04  1.1731E-04  1.1666E-04  1.1558E-04  1.1422E-04  1.1267E-04  1.1104E-04  1.0940E-04  1.0782E-04  1.0633E-04
       1.0496E-04  1.0375E-04  1.0271E-04  1.0185E-04  1.0115E-04
  33   8.1832E-05  8.1458E-05  8.1059E-05  8.0690E-05  8.0434E-05  8.0383E-05  8.0636E-05  8.1292E-05  8.2429E-05  8.4103E-05
       8.6340E-05  8.9136E-05  9.2445E-05  9.6173E-05  1.0016E-04  1.0416E-04  1.0786E-04  1.1097E-04  1.1329E-04  1.1477E-04
       1.1546E-04  1.1548E-04  1.1495E-04  1.1403E-04  1.1282E-04  1.1143E-04  1.0995E-04  1.0845E-04  1.0699E-04  1.0560E-04
       1.0432E-04  1.0319E-04  1.0221E-04  1.0140E-04  1.0075E-04
  34   8.0856E-05  8.0443E-05  8.0035E-05  7.9687E-05  7.9471E-05  7.9459E-05  7.9727E-05  8.0361E-05  8.1436E-05  8.3003E-05
       8.5092E-05  8.7708E-05  9.0821E-05  9.4357E-05  9.8182E-05  1.0208E-04  1.0575E-04  1.0886E-04  1.1119E-04  1.1271E-04
       1.1347E-04  1.1359E-04  1.1320E-04  1.1243E-04  1.1138E-04  1.1015E-04  1.0883E-04  1.0747E-04  1.0614E-04  1.0486E-04
       1.0367E-04  1.0261E-04  1.0169E-04  1.0094E-04  1.0034E-04
  35   7.9986E-05  7.9548E-05  7.9137E-05  7.8805E-05  7.8619E-05  7.8632E-05  7.8903E-05  7.9510E-05  8.0517E-05  8.1975E-05
       8.3914E-05  8.6344E-05  8.9248E-05  9.2573E-05  9.6218E-05  1.0000E-04  1.0363E-04  1.0673E-04  1.0907E-04  1.1062E-04
       1.1146E-04  1.1168E-04  1.1143E-04  1.1080E-04  1.0992E-04  1.0885E-04  1.0768E-04  1.0648E-04  1.0527E-04  1.0410E-04
       1.0301E-04  1.0202E-04  1.0118E-04  1.0048E-04  9.9927E-05
  36   7.9232E-05  7.8781E-05  7.8375E-05  7.8061E-05  7.7894E-05  7.7921E-05  7.8191E-05  7.8768E-05  7.9709E-05  8.1060E-05
       8.2851E-05  8.5096E-05  8.7785E-05  9.0883E-05  9.4318E-05  9.7957E-05  1.0154E-04  1.0462E-04  1.0696E-04  1.0854E-04
       1.0944E-04  1.0977E-04  1.0965E-04  1.0918E-04  1.0845E-04  1.0755E-04  1.0654E-04  1.0547E-04  1.0440E-04  1.0335E-04
       1.0235E-04  1.0144E-04  1.0066E-04  1.0003E-04  9.9522E-05
  37   7.8594E-05  7.8145E-05  7.7752E-05  7.7459E-05  7.7310E-05  7.7347E-05  7.7614E-05  7.8163E-05  7.9042E-05  8.0294E-05
       8.1947E-05  8.4014E-05  8.6492E-05  8.9356E-05  9.2554E-05  9.5999E-05  9.9503E-05  1.0255E-04  1.0488E-04  1.0648E-04
       1.0745E-04  1.0789E-04  1.0790E-04  1.0758E-04  1.0701E-04  1.0626E-04  1.0540E-04  1.0448E-04  1.0353E-04  1.0259E-04
       1.0169E-04  1.0086E-04  1.0016E-04  9.9584E-05  9.9124E-05
  38   7.8073E-05  7.7639E-05  7.7268E-05  7.7001E-05  7.6873E-05  7.6923E-05  7.7189E-05  7.7715E-05  7.8542E-05  7.9707E-05
       8.1235E-05  8.3139E-05  8.5420E-05  8.8057E-05  9.1011E-05  9.4210E-05  9.7558E-05  1.0057E-04  1.0285E-04  1.0447E-04
       1.0551E-04  1.0605E-04  1.0619E-04  1.0601E-04  1.0559E-04  1.0500E-04  1.0428E-04  1.0350E-04  1.0267E-04  1.0185E-04
       1.0104E-04  1.0031E-04  9.9676E-05  9.9154E-05  9.8736E-05
  39   7.7664E-05  7.7257E-05  7.6919E-05  7.6683E-05  7.6583E-05  7.6651E-05  7.6922E-05  7.7433E-05  7.8220E-05  7.9313E-05
       8.0735E-05  8.2498E-05  8.4603E-05  8.7036E-05  8.9765E-05  9.2736E-05  9.5820E-05  9.8665E-05  1.0091E-04  1.0254E-04
       1.0364E-04  1.0427E-04  1.0453E-04  1.0449E-04  1.0422E-04  1.0377E-04  1.0319E-04  1.0254E-04  1.0184E-04  1.0112E-04
       1.0042E-04  9.9775E-05  9.9210E-05  9.8740E-05  9.8360E-05
  40   7.7359E-05  7.6992E-05  7.6695E-05  7.6498E-05  7.6431E-05  7.6525E-05  7.6809E-05  7.7315E-05  7.8075E-05  7.9113E-05
       8.0448E-05  8.2093E-05  8.4046E-05  8.6296E-05  8.8814E-05  9.1543E-05  9.4349E-05  9.6957E-05  9.9103E-05  1.0073E-04
       1.0187E-04  1.0259E-04  1.0296E-04  1.0304E-04  1.0290E-04  1.0258E-04  1.0214E-04  1.0161E-04  1.0103E-04  1.0042E-04
       9.9821E-05  9.9260E-05  9.8762E-05  9.8341E-05  9.7995E-05



             ZONE ARRAY: HK_Par1_Z1
 READING ON UNIT   13 WITH FORMAT: (FREE)              



             ZONE ARRAY: HK_Par1_Z2
 READING ON UNIT   13 WITH FORMAT: (FREE)              



             ZONE ARRAY: HK_Par1_Z3
 READING ON UNIT   13 WITH FORMAT: (FREE)              

 LPF -- LAYER-PROPERTY FLOW PACKAGE, VERSION 7, 5/2/2005
         INPUT READ FROM UNIT   11
 # LPF: Layer Property Flow package file
 CELL-BY-CELL FLOWS WILL BE SAVED ON UNIT   50
 HEAD AT CELLS THAT CONVERT TO DRY=   999.00    
     1 Named Parameters     

   LAYER FLAGS:
 LAYER       LAYTYP        LAYAVG         CHANI        LAYVKA        LAYWET
 ---------------------------------------------------------------------------
    1             0             0     1.000E+00             1             0
    2             0             0     1.000E+00             1             0
    3             0             0     1.000E+00             1             0

   INTERPRETATION OF LAYER FLAGS:
                        INTERBLOCK     HORIZONTAL    DATA IN
         LAYER TYPE   TRANSMISSIVITY   ANISOTROPY   ARRAY VKA   WETTABILITY
 LAYER      (LAYTYP)      (LAYAVG)       (CHANI)      (LAYVKA)      (LAYWET)
 ---------------------------------------------------------------------------
    1      CONFINED      HARMONIC     1.000E+00    ANISOTROPY  NON-WETTABLE
    2      CONFINED      HARMONIC     1.000E+00    ANISOTROPY  NON-WETTABLE
    3      CONFINED      HARMONIC     1.000E+00    ANISOTROPY  NON-WETTABLE

 WETTING CAPABILITY IS NOT ACTIVE IN ANY LAYER

 PARAMETERS DEFINED IN THE LPF PACKAGE

 PARAMETER NAME:HK_Par1      TYPE:HK     CLUSTERS:   3
 Parameter value from package file is:    1.0000    
                LAYER:   1    MULTIPLIER ARRAY: HK_Par1_M1    ZONE ARRAY: HK_Par1_Z1
                ZONE VALUES:    1
                LAYER:   2    MULTIPLIER ARRAY: HK_Par1_M2    ZONE ARRAY: HK_Par1_Z2
                ZONE VALUES:    1
                LAYER:   3    MULTIPLIER ARRAY: HK_Par1_M3    ZONE ARRAY: HK_Par1_Z3
                ZONE VALUES:    1

    HYD. COND. ALONG ROWS FOR LAYER   1 WILL BE DEFINED BY PARAMETERS
 (PRINT FLAG=  -1)

    HYD. COND. ALONG ROWS is defined by the following parameters:
 HK_Par1   


              HYD. COND. ALONG ROWS FOR LAYER   1

  HORIZ. TO VERTICAL ANI. =   1.00000     FOR LAYER   1

    HYD. COND. ALONG ROWS FOR LAYER   2 WILL BE DEFINED BY PARAMETERS
 (PRINT FLAG=  -1)

    HYD. COND. ALONG ROWS is defined by the following parameters:
 HK_Par1   


              HYD. COND. ALONG ROWS FOR LAYER   2

  HORIZ. TO VERTICAL ANI. =   1.00000     FOR LAYER   2

    HYD. COND. ALONG ROWS FOR LAYER   3 WILL BE DEFINED BY PARAMETERS
 (PRINT FLAG=  -1)

    HYD. COND. ALONG ROWS is defined by the following parameters:
 HK_Par1   


              HYD. COND. ALONG ROWS FOR LAYER   3

  HORIZ. TO VERTICAL ANI. =   1.00000     FOR LAYER   3

 WEL -- WELL PACKAGE, VERSION 7, 5/2/2005 INPUT READ FROM UNIT   12
 # WEL: Well package file
 No named parameters
 MAXIMUM OF      3 ACTIVE WELLS AT ONE TIME
 CELL-BY-CELL FLOWS WILL BE SAVED ON UNIT   54


     0 Well parameters

 CHD -- TIME-VARIANT SPECIFIED-HEAD OPTION, VERSION 7, 5/2/2005
 INPUT READ FROM UNIT   40
 # CHD: Time-Variant Specified-Head package file created
 No named parameters
 MAXIMUM OF    240 TIME-VARIANT SPECIFIED-HEAD CELLS AT ONE TIME
 AUXILIARY CHD VARIABLE: IFACE           


     0 TIME-VARIANT SPECIFIED-HEAD PARAMETERS

 PCG -- CONJUGATE-GRADIENT SOLUTION PACKAGE, VERSION 7, 5/2/2005
 MAXIMUM OF   1000 CALLS OF SOLUTION ROUTINE
 MAXIMUM OF     40 INTERNAL ITERATIONS PER CALL TO SOLUTION ROUTINE
 MATRIX PRECONDITIONING TYPE :    1



                                    SOLUTION BY THE CONJUGATE-GRADIENT METHOD
                                   -------------------------------------------
                    MAXIMUM NUMBER OF CALLS TO PCG ROUTINE =     1000
                        MAXIMUM ITERATIONS PER CALL TO PCG =       40
                               MATRIX PRECONDITIONING TYPE =        1
        RELAXATION FACTOR (ONLY USED WITH PRECOND. TYPE 1) =    0.10000E+01
 PARAMETER OF POLYNOMIAL PRECOND. = 2 (2) OR IS CALCULATED :        2
                         HEAD CHANGE CRITERION FOR CLOSURE =    0.10000E-05
                     RESIDUAL CHANGE CRITERION FOR CLOSURE =    0.10000E-05
            PCG HEAD AND RESIDUAL CHANGE PRINTOUT INTERVAL =        5
     PRINTING FROM SOLVER IS LIMITED(1) OR SUPPRESSED (>1) =        0
                                         DAMPING PARAMETER =    0.10000E+01

 OBS2BAS7 -- HEAD OBSERVATIONS, VERSION 2.0, 2/28/2006
 INPUT READ FROM UNIT  18
 # HOB: Head Observation package file

 NUMBER OF HEADS....................................:   36
   NUMBER OF MULTILAYER HEADS.......................:    0
   MAXIMUM NUMBER OF LAYERS FOR MULTILAYER HEADS....:    2
 HEAD OBSERVATIONS WILL BE SAVED ON UNIT............:   14
 SIMULATED EQUIVALENT HEAD AT DRY CELLS WILL BE:    999.000    

 OBSERVED HEAD DATA -- TIME OFFSETS ARE MULTIPLIED BY:   1.0000    

                    REFER.
       OBSERVATION  STRESS    TIME
  OBS#    NAME      PERIOD   OFFSET    OBSERVATION
     1 obs1_01          1    1.000       0.000    
     2 obs1_02          1    1.000       0.000    
     3 obs1_03          1    1.000       0.000    
     4 obs1_04          1    1.000       0.000    
     5 obs1_05          1    1.000       0.000    
     6 obs1_06          1    1.000       0.000    
     7 obs1_07          1    1.000       0.000    
     8 obs1_08          1    1.000       0.000    
     9 obs1_09          1    1.000       0.000    
    10 obs1_10          1    1.000       0.000    
    11 obs1_11          1    1.000       0.000    
    12 obs1_12          1    1.000       0.000    
    13 obs2_01          1    1.000       0.000    
    14 obs2_02          1    1.000       0.000    
    15 obs2_03          1    1.000       0.000    
    16 obs2_04          1    1.000       0.000    
    17 obs2_05          1    1.000       0.000    
    18 obs2_06          1    1.000       0.000    
    19 obs2_07          1    1.000       0.000    
    20 obs2_08          1    1.000       0.000    
    21 obs2_09          1    1.000       0.000    
    22 obs2_10          1    1.000       0.000    
    23 obs2_11          1    1.000       0.000    
    24 obs2_12          1    1.000       0.000    
    25 obs3_01          1    1.000       0.000    
    26 obs3_02          1    1.000       0.000    
    27 obs3_03          1    1.000       0.000    
    28 obs3_04          1    1.000       0.000    
    29 obs3_05          1    1.000       0.000    
    30 obs3_06          1    1.000       0.000    
    31 obs3_07          1    1.000       0.000    
    32 obs3_08          1    1.000       0.000    
    33 obs3_09          1    1.000       0.000    
    34 obs3_10          1    1.000       0.000    
    35 obs3_11          1    1.000       0.000    
    36 obs3_12          1    1.000       0.000    

                                                     HEAD CHANGE
                                                      REFERENCE
        OBSERVATION                   ROW     COL    OBSERVATION
  OBS#     NAME       LAY  ROW  COL  OFFSET  OFFSET   (IF > 0)
     1  obs1_01         1    5    5   0.000   0.000        0
     2  obs1_02         1    5   31   0.000   0.000        0
     3  obs1_03         1   16    8   0.000   0.000        0
     4  obs1_04         1   17   26   0.000   0.000        0
     5  obs1_05         1   35    5   0.000   0.000        0
     6  obs1_06         1   37   31   0.000   0.000        0
     7  obs1_07         1   23   17   0.000   0.000        0
     8  obs1_08         1    6   20   0.000   0.000        0
     9  obs1_09         1   25    5   0.000   0.000        0
    10  obs1_10         1   27   26   0.000   0.000        0
    11  obs1_11         1   38   17   0.000   0.000        0
    12  obs1_12         1   13   18   0.000   0.000        0
    13  obs2_01         2    5    5   0.000   0.000        0
    14  obs2_02         2    5   31   0.000   0.000        0
    15  obs2_03         2   16    8   0.000   0.000        0
    16  obs2_04         2   17   26   0.000   0.000        0
    17  obs2_05         2   35    5   0.000   0.000        0
    18  obs2_06         2   37   31   0.000   0.000        0
    19  obs2_07         2   23   17   0.000   0.000        0
    20  obs2_08         2    6   20   0.000   0.000        0
    21  obs2_09         2   25    5   0.000   0.000        0
    22  obs2_10         2   27   26   0.000   0.000        0
    23  obs2_11         2   38   17   0.000   0.000        0
    24  obs2_12         2   13   18   0.000   0.000        0
    25  obs3_01         3    5    5   0.000   0.000        0
    26  obs3_02         3    5   31   0.000   0.000        0
    27  obs3_03         3   16    8   0.000   0.000        0
    28  obs3_04         3   17   26   0.000   0.000        0
    29  obs3_05         3   35    5   0.000   0.000        0
    30  obs3_06         3   37   31   0.000   0.000        0
    31  obs3_07         3   23   17   0.000   0.000        0
    32  obs3_08         3    6   20   0.000   0.000        0
    33  obs3_09         3   25    5   0.000   0.000        0
    34  obs3_10         3   27   26   0.000   0.000        0
    35  obs3_11         3   38   17   0.000   0.000        0
    36  obs3_12         3   13   18   0.000   0.000        0
1
                            STRESS PERIOD NO.    1, LENGTH =   1.000000    
                            -----------------------------------------------

                              NUMBER OF TIME STEPS =     1

                               MULTIPLIER FOR DELT =     1.000

                            INITIAL TIME STEP SIZE =   1.000000    

 WELL NO.  LAYER   ROW   COL   STRESS RATE         
 --------------------------------------------------
      1      1     18     17     -0.1500E-01
      2      2     18     17     -0.1500E-01
      3      3     18     17     -0.1500E-01

      3 WELLS

 CHD NO.   LAYER   ROW   COL    START HEAD        END HEAD         IFACE           
 ----------------------------------------------------------------------------------
      1      1      1      1       60.00           60.00           0.000    
      2      2      1      1       60.00           60.00           0.000    
      3      3      1      1       60.00           60.00           0.000    
      4      1      2      1       60.00           60.00           0.000    
      5      2      2      1       60.00           60.00           0.000    
      6      3      2      1       60.00           60.00           0.000    
      7      1      3      1       60.00           60.00           0.000    
      8      2      3      1       60.00           60.00           0.000    
      9      3      3      1       60.00           60.00           0.000    
     10      1      4      1       60.00           60.00           0.000    
     11      2      4      1       60.00           60.00           0.000    
     12      3      4      1       60.00           60.00           0.000    
     13      1      5      1       60.00           60.00           0.000    
     14      2      5      1       60.00           60.00           0.000    
     15      3      5      1       60.00           60.00           0.000    
     16      1      6      1       60.00           60.00           0.000    
     17      2      6      1       60.00           60.00           0.000    
     18      3      6      1       60.00           60.00           0.000    
     19      1      7      1       60.00           60.00           0.000    
     20      2      7      1       60.00           60.00           0.000    
     21      3      7      1       60.00           60.00           0.000    
     22      1      8      1       60.00           60.00           0.000    
     23      2      8      1       60.00           60.00           0.000    
     24      3      8      1       60.00           60.00           0.000    
     25      1      9      1       60.00           60.00           0.000    
     26      2      9      1       60.00           60.00           0.000    
     27      3      9      1       60.00           60.00           0.000    
     28      1     10      1       60.00           60.00           0.000    
     29      2     10      1       60.00           60.00           0.000    
     30      3     10      1       60.00           60.00           0.000    
     31      1     11      1       60.00           60.00           0.000    
     32      2     11      1       60.00           60.00           0.000    
     33      3     11      1       60.00           60.00           0.000    
     34      1     12      1       60.00           60.00           0.000    
     35      2     12      1       60.00           60.00           0.000    
     36      3     12      1       60.00           60.00           0.000    
     37      1     13      1       60.00           60.00           0.000    
     38      2     13      1       60.00           60.00           0.000    
     39      3     13      1       60.00           60.00           0.000    
     40      1     14      1       60.00           60.00           0.000    
     41      2     14      1       60.00           60.00           0.000    
     42      3     14      1       60.00           60.00           0.000    
     43      1     15      1       60.00           60.00           0.000    
     44      2     15      1       60.00           60.00           0.000    
     45      3     15      1       60.00           60.00           0.000    
     46      1     16      1       60.00           60.00           0.000    
     47      2     16      1       60.00           60.00           0.000    
     48      3     16      1       60.00           60.00           0.000    
     49      1     17      1       60.00           60.00           0.000    
     50      2     17      1       60.00           60.00           0.000    
     51      3     17      1       60.00           60.00           0.000    
     52      1     18      1       60.00           60.00           0.000    
     53      2     18      1       60.00           60.00           0.000    
     54      3     18      1       60.00           60.00           0.000    
     55      1     19      1       60.00           60.00           0.000    
     56      2     19      1       60.00           60.00           0.000    
     57      3     19      1       60.00           60.00           0.000    
     58      1     20      1       60.00           60.00           0.000    
     59      2     20      1       60.00           60.00           0.000    
     60      3     20      1       60.00           60.00           0.000    
     61      1     21      1       60.00           60.00           0.000    
     62      2     21      1       60.00           60.00           0.000    
     63      3     21      1       60.00           60.00           0.000    
     64      1     22      1       60.00           60.00           0.000    
     65      2     22      1       60.00           60.00           0.000    
     66      3     22      1       60.00           60.00           0.000    
     67      1     23      1       60.00           60.00           0.000    
     68      2     23      1       60.00           60.00           0.000    
     69      3     23      1       60.00           60.00           0.000    
     70      1     24      1       60.00           60.00           0.000    
     71      2     24      1       60.00           60.00           0.000    
     72      3     24      1       60.00           60.00           0.000    
     73      1     25      1       60.00           60.00           0.000    
     74      2     25      1       60.00           60.00           0.000    
     75      3     25      1       60.00           60.00           0.000    
     76      1     26      1       60.00           60.00           0.000    
     77      2     26      1       60.00           60.00           0.000    
     78      3     26      1       60.00           60.00           0.000    
     79      1     27      1       60.00           60.00           0.000    
     80      2     27      1       60.00           60.00           0.000    
     81      3     27      1       60.00           60.00           0.000    
     82      1     28      1       60.00           60.00           0.000    
     83      2     28      1       60.00           60.00           0.000    
     84      3     28      1       60.00           60.00           0.000    
     85      1     29      1       60.00           60.00           0.000    
     86      2     29      1       60.00           60.00           0.000    
     87      3     29      1       60.00           60.00           0.000    
     88      1     30      1       60.00           60.00           0.000    
     89      2     30      1       60.00           60.00           0.000    
     90      3     30      1       60.00           60.00           0.000    
     91      1     31      1       60.00           60.00           0.000    
     92      2     31      1       60.00           60.00           0.000    
     93      3     31      1       60.00           60.00           0.000    
     94      1     32      1       60.00           60.00           0.000    
     95      2     32      1       60.00           60.00           0.000    
     96      3     32      1       60.00           60.00           0.000    
     97      1     33      1       60.00           60.00           0.000    
     98      2     33      1       60.00           60.00           0.000    
     99      3     33      1       60.00           60.00           0.000    
    100      1     34      1       60.00           60.00           0.000    
    101      2     34      1       60.00           60.00           0.000    
    102      3     34      1       60.00           60.00           0.000    
    103      1     35      1       60.00           60.00           0.000    
    104      2     35      1       60.00           60.00           0.000    
    105      3     35      1       60.00           60.00           0.000    
    106      1     36      1       60.00           60.00           0.000    
    107      2     36      1       60.00           60.00           0.000    
    108      3     36      1       60.00           60.00           0.000    
    109      1     37      1       60.00           60.00           0.000    
    110      2     37      1       60.00           60.00           0.000    
    111      3     37      1       60.00           60.00           0.000    
    112      1     38      1       60.00           60.00           0.000    
    113      2     38      1       60.00           60.00           0.000    
    114      3     38      1       60.00           60.00           0.000    
    115      1     39      1       60.00           60.00           0.000    
    116      2     39      1       60.00           60.00           0.000    
    117      3     39      1       60.00           60.00           0.000    
    118      1     40      1       60.00           60.00           0.000    
    119      2     40      1       60.00           60.00           0.000    
    120      3     40      1       60.00           60.00           0.000    
    121      1      1     35       58.00           58.00           0.000    
    122      2      1     35       58.00           58.00           0.000    
    123      3      1     35       58.00           58.00           0.000    
    124      1      2     35       58.00           58.00           0.000    
    125      2      2     35       58.00           58.00           0.000    
    126      3      2     35       58.00           58.00           0.000    
    127      1      3     35       58.00           58.00           0.000    
    128      2      3     35       58.00           58.00           0.000    
    129      3      3     35       58.00           58.00           0.000    
    130      1      4     35       58.00           58.00           0.000    
    131      2      4     35       58.00           58.00           0.000    
    132      3      4     35       58.00           58.00           0.000    
    133      1      5     35       58.00           58.00           0.000    
    134      2      5     35       58.00           58.00           0.000    
    135      3      5     35       58.00           58.00           0.000    
    136      1      6     35       58.00           58.00           0.000    
    137      2      6     35       58.00           58.00           0.000    
    138      3      6     35       58.00           58.00           0.000    
    139      1      7     35       58.00           58.00           0.000    
    140      2      7     35       58.00           58.00           0.000    
    141      3      7     35       58.00           58.00           0.000    
    142      1      8     35       58.00           58.00           0.000    
    143      2      8     35       58.00           58.00           0.000    
    144      3      8     35       58.00           58.00           0.000    
    145      1      9     35       58.00           58.00           0.000    
    146      2      9     35       58.00           58.00           0.000    
    147      3      9     35       58.00           58.00           0.000    
    148      1     10     35       58.00           58.00           0.000    
    149      2     10     35       58.00           58.00           0.000    
    150      3     10     35       58.00           58.00           0.000    
    151      1     11     35       58.00           58.00           0.000    
    152      2     11     35       58.00           58.00           0.000    
    153      3     11     35       58.00           58.00           0.000    
    154      1     12     35       58.00           58.00           0.000    
    155      2     12     35       58.00           58.00           0.000    
    156      3     12     35       58.00           58.00           0.000    
    157      1     13     35       58.00           58.00           0.000    
    158      2     13     35       58.00           58.00           0.000    
    159      3     13     35       58.00           58.00           0.000    
    160      1     14     35       58.00           58.00           0.000    
    161      2     14     35       58.00           58.00           0.000    
    162      3     14     35       58.00           58.00           0.000    
    163      1     15     35       58.00           58.00           0.000    
    164      2     15     35       58.00           58.00           0.000    
    165      3     15     35       58.00           58.00           0.000    
    166      1     16     35       58.00           58.00           0.000    
    167      2     16     35       58.00           58.00           0.000    
    168      3     16     35       58.00           58.00           0.000    
    169      1     17     35       58.00           58.00           0.000    
    170      2     17     35       58.00           58.00           0.000    
    171      3     17     35       58.00           58.00           0.000    
    172      1     18     35       58.00           58.00           0.000    
    173      2     18     35       58.00           58.00           0.000    
    174      3     18     35       58.00           58.00           0.000    
    175      1     19     35       58.00           58.00           0.000    
    176      2     19     35       58.00           58.00           0.000    
    177      3     19     35       58.00           58.00           0.000    
    178      1     20     35       58.00           58.00           0.000    
    179      2     20     35       58.00           58.00           0.000    
    180      3     20     35       58.00           58.00           0.000    
    181      1     21     35       58.00           58.00           0.000    
    182      2     21     35       58.00           58.00           0.000    
    183      3     21     35       58.00           58.00           0.000    
    184      1     22     35       58.00           58.00           0.000    
    185      2     22     35       58.00           58.00           0.000    
    186      3     22     35       58.00           58.00           0.000    
    187      1     23     35       58.00           58.00           0.000    
    188      2     23     35       58.00           58.00           0.000    
    189      3     23     35       58.00           58.00           0.000    
    190      1     24     35       58.00           58.00           0.000    
    191      2     24     35       58.00           58.00           0.000    
    192      3     24     35       58.00           58.00           0.000    
    193      1     25     35       58.00           58.00           0.000    
    194      2     25     35       58.00           58.00           0.000    
    195      3     25     35       58.00           58.00           0.000    
    196      1     26     35       58.00           58.00           0.000    
    197      2     26     35       58.00           58.00           0.000    
    198      3     26     35       58.00           58.00           0.000    
    199      1     27     35       58.00           58.00           0.000    
    200      2     27     35       58.00           58.00           0.000    
    201      3     27     35       58.00           58.00           0.000    
    202      1     28     35       58.00           58.00           0.000    
    203      2     28     35       58.00           58.00           0.000    
    204      3     28     35       58.00           58.00           0.000    
    205      1     29     35       58.00           58.00           0.000    
    206      2     29     35       58.00           58.00           0.000    
    207      3     29     35       58.00           58.00           0.000    
    208      1     30     35       58.00           58.00           0.000    
    209      2     30     35       58.00           58.00           0.000    
    210      3     30     35       58.00           58.00           0.000    
    211      1     31     35       58.00           58.00           0.000    
    212      2     31     35       58.00           58.00           0.000    
    213      3     31     35       58.00           58.00           0.000    
    214      1     32     35       58.00           58.00           0.000    
    215      2     32     35       58.00           58.00           0.000    
    216      3     32     35       58.00           58.00           0.000    
    217      1     33     35       58.00           58.00           0.000    
    218      2     33     35       58.00           58.00           0.000    
    219      3     33     35       58.00           58.00           0.000    
    220      1     34     35       58.00           58.00           0.000    
    221      2     34     35       58.00           58.00           0.000    
    222      3     34     35       58.00           58.00           0.000    
    223      1     35     35       58.00           58.00           0.000    
    224      2     35     35       58.00           58.00           0.000    
    225      3     35     35       58.00           58.00           0.000    
    226      1     36     35       58.00           58.00           0.000    
    227      2     36     35       58.00           58.00           0.000    
    228      3     36     35       58.00           58.00           0.000    
    229      1     37     35       58.00           58.00           0.000    
    230      2     37     35       58.00           58.00           0.000    
    231      3     37     35       58.00           58.00           0.000    
    232      1     38     35       58.00           58.00           0.000    
    233      2     38     35       58.00           58.00           0.000    
    234      3     38     35       58.00           58.00           0.000    
    235      1     39     35       58.00           58.00           0.000    
    236      2     39     35       58.00           58.00           0.000    
    237      3     39     35       58.00           58.00           0.000    
    238      1     40     35       58.00           58.00           0.000    
    239      2     40     35       58.00           58.00           0.000    
    240      3     40     35       58.00           58.00           0.000    


    240 TIME-VARIANT SPECIFIED-HEAD CELLS
 
 SOLVING FOR HEAD 


     2 CALLS TO PCG ROUTINE FOR TIME STEP   1 IN STRESS PERIOD    1
    37 TOTAL ITERATIONS

 MAXIMUM HEAD CHANGE FOR EACH ITERATION (1 INDICATES THE FIRST INNER ITERATION):

    HEAD CHANGE    HEAD CHANGE    HEAD CHANGE    HEAD CHANGE    HEAD CHANGE 
   LAYER,ROW,COL  LAYER,ROW,COL  LAYER,ROW,COL  LAYER,ROW,COL  LAYER,ROW,COL
 ---------------------------------------------------------------------------
  1  -8.373      0   3.409      0  -1.331      0  0.9055      0 -0.6285    
   (  2, 18, 17)  (  2, 31, 25)  (  2, 17, 21)  (  2,  2, 15)  (  2, 14, 24)
  0 -0.5153      0 -0.3827      0 -0.3779      0  0.1684      0 -0.9083E-01
   (  2, 18, 17)  (  2, 18, 17)  (  2, 18, 17)  (  2, 38, 24)  (  2, 18, 17)
  0 -0.5551E-01  0  0.3301E-01  0  0.1719E-01  0  0.1052E-01  0 -0.8956E-02
   (  3, 15, 20)  (  2, 26, 29)  (  3, 19, 25)  (  3, 30, 23)  (  3, 19, 16)
  0 -0.6630E-02  0 -0.3603E-02  0  0.2492E-02  0 -0.2442E-02  0  0.1677E-02
   (  2, 39, 29)  (  2, 21, 31)  (  2, 30, 25)  (  2, 32, 27)  (  2, 14, 19)
  0 -0.7631E-03  0 -0.2659E-03  0  0.3388E-03  0  0.1865E-03  0 -0.1236E-03
   (  2, 10, 18)  (  2, 40, 23)  (  2, 32, 20)  (  2, 12, 28)  (  2,  8, 25)
  0 -0.7674E-04  0  0.6030E-04  0 -0.3916E-04  0  0.2105E-04  0 -0.8942E-05
   (  2, 40, 19)  (  2, 33, 15)  (  2, 37, 19)  (  2, 29, 15)  (  2, 38, 22)
  0 -0.9341E-05  0  0.7092E-05  0 -0.2667E-05  0  0.2129E-05  0  0.1696E-05
   (  2, 14, 18)  (  2, 14, 20)  (  2,  7, 27)  (  2, 36, 26)  (  2, 10, 29)
  0 -0.8348E-06  1  0.5714E-06
   (  2,  4, 18)  (  2,  9, 19)

 MAXIMUM RESIDUAL FOR EACH ITERATION (1 INDICATES THE FIRST INNER ITERATION):

    RESIDUAL       RESIDUAL       RESIDUAL       RESIDUAL       RESIDUAL    
   LAYER,ROW,COL  LAYER,ROW,COL  LAYER,ROW,COL  LAYER,ROW,COL  LAYER,ROW,COL
 ---------------------------------------------------------------------------
  1  0.1126E-01  0  0.9706E-02  0  0.8761E-02  0  0.7448E-02  0  0.5419E-02
   (  1,  1, 34)  (  1,  1, 34)  (  1,  1, 34)  (  1,  1, 34)  (  1,  1, 34)
  0  0.3319E-02  0  0.1795E-02  0 -0.1492E-02  0 -0.1165E-02  0  0.6399E-03
   (  1,  1, 34)  (  1,  1, 34)  (  1,  2, 34)  (  1,  2, 34)  (  1,  2, 33)
  0  0.5154E-03  0  0.3225E-03  0  0.1716E-03  0 -0.1098E-03  0 -0.8865E-04
   (  1,  2, 33)  (  1,  2, 33)  (  1,  2, 33)  (  1,  4, 33)  (  1,  3, 33)
  0 -0.5326E-04  0 -0.2341E-04  0  0.1575E-04  0  0.1109E-04  0 -0.7962E-05
   (  1,  3, 33)  (  1,  3, 33)  (  1,  3, 32)  (  1,  3, 32)  (  1,  5, 32)
  0 -0.4790E-05  0 -0.3350E-05  0 -0.1844E-05  0 -0.9967E-06  0 -0.6581E-06
   (  1,  5, 32)  (  1,  4, 32)  (  1,  4, 32)  (  1,  7, 31)  (  1,  6, 31)
  0 -0.3985E-06  0 -0.1761E-06  0  0.1037E-06  0  0.7329E-07  0  0.4922E-07
   (  1,  6, 31)  (  1,  6, 31)  (  1,  8, 31)  (  1,  4, 31)  (  1,  4, 31)
  0  0.3735E-07  0  0.2357E-07  0  0.1448E-07  0 -0.9864E-08  0 -0.6238E-08
   (  1,  4, 31)  (  1,  4, 31)  (  1,  4, 31)  (  1,  5, 31)  (  1,  5, 31)
  0 -0.3789E-08  1 -0.3434E-08
   (  1,  5, 31)  (  1,  5, 31)



 OUTPUT CONTROL FOR STRESS PERIOD    1   TIME STEP   1
    SAVE HEAD FOR ALL LAYERS

 HEAD WILL BE SAVED ON UNIT   30 AT END OF TIME STEP   1, STRESS PERIOD    1
1
  VOLUMETRIC BUDGET FOR ENTIRE MODEL AT END OF TIME STEP  1 IN STRESS PERIOD   1
  ------------------------------------------------------------------------------

     CUMULATIVE VOLUMES      L**3       RATES FOR THIS TIME STEP      L**3/T
     ------------------                 ------------------------

           IN:                                      IN:
           ---                                      ---
             STORAGE =           0.0000               STORAGE =           0.0000
       CONSTANT HEAD =       4.5987E-02         CONSTANT HEAD =       4.5987E-02
               WELLS =           0.0000                 WELLS =           0.0000

            TOTAL IN =       4.5987E-02              TOTAL IN =       4.5987E-02

          OUT:                                     OUT:
          ----                                     ----
             STORAGE =           0.0000               STORAGE =           0.0000
       CONSTANT HEAD =       9.8686E-04         CONSTANT HEAD =       9.8686E-04
               WELLS =       4.5000E-02                 WELLS =       4.5000E-02

           TOTAL OUT =       4.5987E-02             TOTAL OUT =       4.5987E-02

            IN - OUT =      -7.4506E-09              IN - OUT =      -7.4506E-09

 PERCENT DISCREPANCY =           0.00     PERCENT DISCREPANCY =           0.00






          TIME SUMMARY AT END OF TIME STEP   1 IN STRESS PERIOD    1
                    SECONDS     MINUTES      HOURS       DAYS        YEARS
                    -----------------------------------------------------------
   TIME STEP LENGTH  1.0000     1.66667E-02 2.77778E-04 1.15741E-05 3.16881E-08
 STRESS PERIOD TIME  1.0000     1.66667E-02 2.77778E-04 1.15741E-05 3.16881E-08
         TOTAL TIME  1.0000     1.66667E-02 2.77778E-04 1.15741E-05 3.16881E-08
1

 HEAD AND DRAWDOWN OBSERVATIONS
 OBSERVATION      OBSERVED      SIMULATED
   NAME             VALUE         VALUE      DIFFERENCE
 -------------------------------------------------------
 obs1_01         0.00000       59.4767      -59.4767    
 obs1_02         0.00000       58.0131      -58.0131    
 obs1_03         0.00000       59.0468      -59.0468    
 obs1_04         0.00000       57.9722      -57.9722    
 obs1_05         0.00000       59.5664      -59.5664    
 obs1_06         0.00000       58.0575      -58.0575    
 obs1_07         0.00000       58.0894      -58.0894    
 obs1_08         0.00000       58.1802      -58.1802    
 obs1_09         0.00000       59.4884      -59.4884    
 obs1_10         0.00000       58.0571      -58.0571    
 obs1_11         0.00000       58.5699      -58.5699    
 obs1_12         0.00000       58.0245      -58.0245    
 obs2_01         0.00000       59.3745      -59.3745    
 obs2_02         0.00000       57.9067      -57.9067    
 obs2_03         0.00000       58.6797      -58.6797    
 obs2_04         0.00000       57.5490      -57.5490    
 obs2_05         0.00000       59.4772      -59.4772    
 obs2_06         0.00000       57.9791      -57.9791    
 obs2_07         0.00000       56.6360      -56.6360    
 obs2_08         0.00000       57.7040      -57.7040    
 obs2_09         0.00000       59.3431      -59.3431    
 obs2_10         0.00000       57.7573      -57.7573    
 obs2_11         0.00000       58.2755      -58.2755    
 obs2_12         0.00000       56.6606      -56.6606    
 obs3_01         0.00000       59.2575      -59.2575    
 obs3_02         0.00000       57.7902      -57.7902    
 obs3_03         0.00000       58.4687      -58.4687    
 obs3_04         0.00000       57.3140      -57.3140    
 obs3_05         0.00000       59.3530      -59.3530    
 obs3_06         0.00000       57.8846      -57.8846    
 obs3_07         0.00000       56.6260      -56.6260    
 obs3_08         0.00000       57.3595      -57.3595    
 obs3_09         0.00000       59.2209      -59.2209    
 obs3_10         0.00000       57.5322      -57.5322    
 obs3_11         0.00000       57.9504      -57.9504    
 obs3_12         0.00000       56.5618      -56.5618    

 SUM OF SQUARED DIFFERENCE:    1.21969E+05

 Run end date and time (yyyy/mm/dd hh:mm:ss): 2011/10/26 16:25:36
 Elapsed run time:  0.235 Seconds

